data_1
_audit_creation_method   'Generated by vasp2cif'
_cell_length_a    4.75327205649
_cell_length_b    4.96701249034
_cell_length_c    5.10069400556
_cell_angle_alpha    73.7278505823
_cell_angle_beta    94.1794172842
_cell_angle_gamma    100.125980698

_symmetry_space_group_name_H-M    'P 1'
loop_
_atom_site_label
_atom_site_type_symbol
_atom_site_fract_x
_atom_site_fract_y
_atom_site_fract_z
_atom_site_occupancy
C1   C   0.435195692510888   0.534370983750122   0.305696435573346   1.0
C2   C   0.647894366015088   0.362100158115545   0.257622047333925   1.0
H3   H   0.845913598953331   0.495243994906119   0.178233986481828   1.0
H4   H   0.558033375769234   0.243751476420059   0.113705040885684   1.0
H5   H   0.561672254153997   0.505621014519448   0.709897009921413   1.0
H6   H   0.412926322972105   0.792914336975223   0.567703791702257   1.0
H7   H   0.698351201948100   0.211423055906010   0.446580806670781   1.0
H8   H   0.407496530408615   0.707870210854914   0.127775790921035   1.0
H9   H   0.229951357258685   0.406143359852699   0.365393382783097   1.0
H10   H   0.748432171767995   0.778841336602888   0.487011638684649   1.0
F11   F   0.389936267078220   0.058821951859372   0.803552163439555   1.0
F12   F   0.053141777527294   0.441648933501689   0.812530564070720   1.0
F13   F   0.065645387265846   0.969043991990993   0.277144104996047   1.0
N14   N   0.546561426093874   0.664664371554991   0.533988682744244   1.0
Ge15   Ge   0.993558270276694   0.036130823189929   0.884184553791442   1.0




# HOIP entry ID:                    0001
# Khazana ID:                       1851
# Organic cation source:            B.Saparov et al., Chem. Rev. 116, 4558 (2016)
# Label:                            Ethylammonium Germanium Fluoride
# Material class:                   Hybrid organic-inorganic perovskite ( MC_ino )
# Geometry class:                   Bulk crystalline materials ( GC_cry )
# Organic cation chemical formula:  CH3CH2NH3
# Number of atom types:             5
# Total number of atoms:            15
# Atom types:                       C H N  Ge F
# Number of each atom:              2 8 1  1 3
# Bandgap, HSE06 (eV):              5.9448
# Bandgap, GGA (eV):                4.7308
# Kpoint for VBM:                   0.5, 0.5, 0.5
# Kpoint for CBM:                   0.5, 0.5, 0.5
# Dielectric constant, electronic:  2.7968
# Dielectric constant, ionic:       2.6005
# Dielectric constant, total:       5.3973
# Refractive index:                 1.6724
# Atomization energy (eV/atom):     -4.7512
# Relative energy1 (eV/atom):       -0.2279
# Relative energy2 (eV/atom):       0.3767
# Volume of the unit cell (A^3):    113.76
# Density (g/cm^3):                 2.5647
# Tool:                             VASP
# Pseudopotential:                  PAW
# Note:                             ENCUT=400eV, k-spacing_relax=0.20/Angstrom, k-spacing_bandgap=0.15/Angstrom
# Created by:                       C.Kim, T.D.Huan, S.Krishnan, R. Ramprasad