data_1
_audit_creation_method   'Generated by vasp2cif'
_cell_length_a    5.14908209966
_cell_length_b    4.65174556999
_cell_length_c    5.15492200371
_cell_angle_alpha    80.5176233861
_cell_angle_beta    70.2206829864
_cell_angle_gamma    80.7926386196

_symmetry_space_group_name_H-M    'P 1'
loop_
_atom_site_label
_atom_site_type_symbol
_atom_site_fract_x
_atom_site_fract_y
_atom_site_fract_z
_atom_site_occupancy
C1   C   0.577080220700701   0.812302978246763   0.298715567350811   1.0
C2   C   0.487080788351434   0.580559283774363   0.186414329251434   1.0
H3   H   0.661234571101048   0.459591579614511   0.047364381363721   1.0
H4   H   0.349530298793610   0.682770900283245   0.070147289293487   1.0
H5   H   0.666067120767309   0.523407259555128   0.621834158973492   1.0
H6   H   0.815238094231340   0.838472390243581   0.552302420268603   1.0
H7   H   0.378298806631243   0.421551110682501   0.349259233501847   1.0
H8   H   0.689629602787306   0.964790815728563   0.132888322851564   1.0
H9   H   0.398765394708782   0.931457860956407   0.433408129480114   1.0
H10   H   0.940313708265073   0.568223411671561   0.346405594745512   1.0
F11   F   0.533086675855550   0.171150386476029   0.767539620343719   1.0
F12   F   0.109712885730026   0.635867562070743   0.818660243743842   1.0
F13   F   0.060484775132309   0.170508946648724   0.237396265206378   1.0
N14   N   0.763887255667058   0.679390442305298   0.467814893733269   1.0
Ge15   Ge   0.133059801277270   0.209755071742641   0.841569549892277   1.0




# HOIP entry ID:                    0002
# Khazana ID:                       1852
# Organic cation source:            B.Saparov et al., Chem. Rev. 116, 4558 (2016)
# Label:                            Ethylammonium Germanium Fluoride
# Material class:                   Hybrid organic-inorganic perovskite ( MC_ino )
# Geometry class:                   Bulk crystalline materials ( GC_cry )
# Organic cation chemical formula:  CH3CH2NH3
# Number of atom types:             5
# Total number of atoms:            15
# Atom types:                       C H N  Ge F
# Number of each atom:              2 8 1  1 3
# Bandgap, HSE06 (eV):              5.3704
# Bandgap, GGA (eV):                4.1048
# Kpoint for VBM:                   0.5, 0.5, 0.5
# Kpoint for CBM:                   0.5, 0.5, 0.5
# Dielectric constant, electronic:  2.8753
# Dielectric constant, ionic:       2.7377
# Dielectric constant, total:       5.613
# Refractive index:                 1.6957
# Atomization energy (eV/atom):     -4.7495
# Relative energy1 (eV/atom):       -0.2262
# Relative energy2 (eV/atom):       0.3784
# Volume of the unit cell (A^3):    113.87
# Density (g/cm^3):                 2.5622
# Tool:                             VASP
# Pseudopotential:                  PAW
# Note:                             ENCUT=400eV, k-spacing_relax=0.20/Angstrom, k-spacing_bandgap=0.15/Angstrom
# Created by:                       C.Kim, T.D.Huan, S.Krishnan, R. Ramprasad