data_1
_audit_creation_method   'Generated by vasp2cif'
_cell_length_a    4.67795629958
_cell_length_b    3.64099826929
_cell_length_c    7.93998005883
_cell_angle_alpha    65.0256599809
_cell_angle_beta    104.652997989
_cell_angle_gamma    104.321985077

_symmetry_space_group_name_H-M    'P 1'
loop_
_atom_site_label
_atom_site_type_symbol
_atom_site_fract_x
_atom_site_fract_y
_atom_site_fract_z
_atom_site_occupancy
C1   C   0.281016561800563   0.457945047105774   0.582522350506785   1.0
C2   C   0.558215957060199   0.443397712515136   0.520988162356971   1.0
H3   H   0.498819861025176   0.392433207884331   0.389916814210437   1.0
H4   H   0.710193309051803   0.733031454489868   0.495763749123285   1.0
H5   H   0.395854411381876   0.174307537705396   0.878630867275355   1.0
H6   H   0.189989976151892   0.545112176964217   0.811483176368363   1.0
H7   H   0.187728559546230   0.735541916026087   0.489729401060345   1.0
H8   H   0.677476250238115   0.199964563183073   0.627559515248741   1.0
H9   H   0.106882140625956   0.197649117547840   0.585339515754768   1.0
H10   H   0.555593577274358   0.646615606825144   0.796251545545125   1.0
F11   F   0.546141307813826   0.770960532756590   0.059046869042369   1.0
F12   F   0.938504970219640   0.701262944469541   0.878018994011335   1.0
F13   F   0.913854283093364   0.243156730509369   0.282167032794987   1.0
N14   N   0.355977711021367   0.459229636977170   0.777434672258238   1.0
Ge15   Ge   0.979571123695635   0.815161815040533   0.119107334442837   1.0




# HOIP entry ID:                    0004
# Khazana ID:                       1854
# Organic cation source:            B.Saparov et al., Chem. Rev. 116, 4558 (2016)
# Label:                            Ethylammonium Germanium Fluoride
# Material class:                   Hybrid organic-inorganic perovskite ( MC_ino )
# Geometry class:                   Bulk crystalline materials ( GC_cry )
# Organic cation chemical formula:  CH3CH2NH3
# Number of atom types:             5
# Total number of atoms:            15
# Atom types:                       C H N  Ge F
# Number of each atom:              2 8 1  1 3
# Bandgap, HSE06 (eV):              5.9494
# Bandgap, GGA (eV):                4.6666
# Kpoint for VBM:                   0.5, 0.5, 0.5
# Kpoint for CBM:                   0.0556, 0, 0.3571
# Dielectric constant, electronic:  2.7315
# Dielectric constant, ionic:       2.5727
# Dielectric constant, total:       5.3041
# Refractive index:                 1.6527
# Atomization energy (eV/atom):     -4.7509
# Relative energy1 (eV/atom):       -0.2276
# Relative energy2 (eV/atom):       0.377
# Volume of the unit cell (A^3):    117.07
# Density (g/cm^3):                 2.4922
# Tool:                             VASP
# Pseudopotential:                  PAW
# Note:                             ENCUT=400eV, k-spacing_relax=0.20/Angstrom, k-spacing_bandgap=0.15/Angstrom
# Created by:                       C.Kim, T.D.Huan, S.Krishnan, R. Ramprasad