data_1
_audit_creation_method   'Generated by vasp2cif'
_cell_length_a    6.8909561669
_cell_length_b    3.82887500908
_cell_length_c    5.16145399801
_cell_angle_alpha    115.91657242
_cell_angle_beta    74.1434833251
_cell_angle_gamma    105.65114519

_symmetry_space_group_name_H-M    'P 1'
loop_
_atom_site_label
_atom_site_type_symbol
_atom_site_fract_x
_atom_site_fract_y
_atom_site_fract_z
_atom_site_occupancy
C1   C   0.571559703972871   0.474376537118567   0.451716280160550   1.0
C2   C   0.685554021658781   0.859650888474413   0.644403511841782   1.0
H3   H   0.729847305145909   0.808605010122744   0.810471470074590   1.0
H4   H   0.824413072022956   0.973092074589625   0.524328961185256   1.0
H5   H   0.533144836611458   0.668491307793631   0.144762307526543   1.0
H6   H   0.333967529248740   0.702559968613703   0.417749227792483   1.0
H7   H   0.680000964525016   0.285294555499459   0.295916169732004   1.0
H8   H   0.587286670410916   0.080443494248707   0.756738421843733   1.0
H9   H   0.460452679574611   0.326936625639139   0.581700532204509   1.0
H10   H   0.370935707353481   0.264070143081360   0.157513800068137   1.0
F11   F   0.297752632494036   0.773042129179944   0.997416737190167   1.0
F12   F   0.005087434170726   0.228987052400996   0.234884655327062   1.0
F13   F   0.157085565568985   0.963340582552506   0.654712308936940   1.0
N14   N   0.447295497727203   0.534851933572745   0.282241083500309   1.0
Ge15   Ge   0.028026379514269   0.708337697112511   0.932864532615969   1.0




# HOIP entry ID:                    0005
# Khazana ID:                       1855
# Organic cation source:            B.Saparov et al., Chem. Rev. 116, 4558 (2016)
# Label:                            Ethylammonium Germanium Fluoride
# Material class:                   Hybrid organic-inorganic perovskite ( MC_ino )
# Geometry class:                   Bulk crystalline materials ( GC_cry )
# Organic cation chemical formula:  CH3CH2NH3
# Number of atom types:             5
# Total number of atoms:            15
# Atom types:                       C H N  Ge F
# Number of each atom:              2 8 1  1 3
# Bandgap, HSE06 (eV):              5.9595
# Bandgap, GGA (eV):                4.6595
# Kpoint for VBM:                   0.0263, 0.5, 0.0263
# Kpoint for CBM:                   -0.4167, 0.0909, 0.15
# Dielectric constant, electronic:  2.7502
# Dielectric constant, ionic:       2.2136
# Dielectric constant, total:       4.9637
# Refractive index:                 1.6584
# Atomization energy (eV/atom):     -4.7332
# Relative energy1 (eV/atom):       -0.2099
# Relative energy2 (eV/atom):       0.3947
# Volume of the unit cell (A^3):    116.03
# Density (g/cm^3):                 2.5145
# Tool:                             VASP
# Pseudopotential:                  PAW
# Note:                             ENCUT=400eV, k-spacing_relax=0.20/Angstrom, k-spacing_bandgap=0.15/Angstrom
# Created by:                       C.Kim, T.D.Huan, S.Krishnan, R. Ramprasad