data_1
_audit_creation_method   'Generated by vasp2cif'
_cell_length_a    4.79012378643
_cell_length_b    3.58040173685
_cell_length_c    7.70205696483
_cell_angle_alpha    107.565592285
_cell_angle_beta    78.2958618439
_cell_angle_gamma    110.719872971

_symmetry_space_group_name_H-M    'P 1'
loop_
_atom_site_label
_atom_site_type_symbol
_atom_site_fract_x
_atom_site_fract_y
_atom_site_fract_z
_atom_site_occupancy
C1   C   0.442622046103812   0.006375588653173   0.479787521140785   1.0
C2   C   0.714487782904428   0.099738795607318   0.575949743770450   1.0
H3   H   0.863051817660618   0.925970208093015   0.494867029106285   1.0
H4   H   0.841348744022358   0.426219444331964   0.600814415721849   1.0
H5   H   0.353812069370806   0.074372677962502   0.236182461938339   1.0
H6   H   0.621790392746523   0.871867167478502   0.203821231435621   1.0
H7   H   0.299812946324213   0.686614639544593   0.458900756666448   1.0
H8   H   0.641079505562189   0.024020340949265   0.707652343409272   1.0
H9   H   0.308125170939643   0.200930422439911   0.558500717090970   1.0
H10   H   0.699350625367244   0.373412114893844   0.295101684261307   1.0
F11   F   0.448217770657965   0.388241196920245   0.021356275412750   1.0
F12   F   0.992686430191015   0.726027906482272   0.181401374735247   1.0
F13   F   0.215523014916007   0.618869715499261   0.793857934060677   1.0
N14   N   0.535967897350424   0.093463004552160   0.294150872235572   1.0
Ge15   Ge   0.052413785882751   0.246026776591993   0.952525639014368   1.0




# HOIP entry ID:                    0006
# Khazana ID:                       1856
# Organic cation source:            B.Saparov et al., Chem. Rev. 116, 4558 (2016)
# Label:                            Ethylammonium Germanium Fluoride
# Material class:                   Hybrid organic-inorganic perovskite ( MC_ino )
# Geometry class:                   Bulk crystalline materials ( GC_cry )
# Organic cation chemical formula:  CH3CH2NH3
# Number of atom types:             5
# Total number of atoms:            15
# Atom types:                       C H N  Ge F
# Number of each atom:              2 8 1  1 3
# Bandgap, HSE06 (eV):              5.9412
# Bandgap, GGA (eV):                4.664
# Kpoint for VBM:                   0.5, 0.5, 0
# Kpoint for CBM:                   0.0556, 0, 0.1
# Dielectric constant, electronic:  2.7323
# Dielectric constant, ionic:       3.1944
# Dielectric constant, total:       5.9267
# Refractive index:                 1.653
# Atomization energy (eV/atom):     -4.743
# Relative energy1 (eV/atom):       -0.2197
# Relative energy2 (eV/atom):       0.3849
# Volume of the unit cell (A^3):    117.1
# Density (g/cm^3):                 2.4915
# Tool:                             VASP
# Pseudopotential:                  PAW
# Note:                             ENCUT=400eV, k-spacing_relax=0.20/Angstrom, k-spacing_bandgap=0.15/Angstrom
# Created by:                       C.Kim, T.D.Huan, S.Krishnan, R. Ramprasad