data_1
_audit_creation_method   'Generated by vasp2cif'
_cell_length_a    4.68746300519
_cell_length_b    3.63526529344
_cell_length_c    7.34397904481
_cell_angle_alpha    92.0150055716
_cell_angle_beta    81.8140655162
_cell_angle_gamma    69.29006077

_symmetry_space_group_name_H-M    'P 1'
loop_
_atom_site_label
_atom_site_type_symbol
_atom_site_fract_x
_atom_site_fract_y
_atom_site_fract_z
_atom_site_occupancy
C1   C   0.374955157677737   0.630745176881699   0.501708451069971   1.0
C2   C   0.665534112044439   0.684565193499164   0.543895202798580   1.0
H3   H   0.841697793870633   0.400241070009356   0.553719936840006   1.0
H4   H   0.758862636361586   0.831346311494853   0.437509027250643   1.0
H5   H   0.636640475799377   0.226875474263894   0.269985569514130   1.0
H6   H   0.411886310946830   0.642218199358868   0.213076174197746   1.0
H7   H   0.306533737059009   0.445161740890747   0.597837629336172   1.0
H8   H   0.618234920381099   0.855437120841306   0.676940337235572   1.0
H9   H   0.181459629881654   0.907399806859454   0.512689481479180   1.0
H10   H   0.252693568782197   0.323846333278779   0.292482632075715   1.0
F11   F   0.638068534153523   0.774394619011921   0.029723428898057   1.0
F12   F   0.023428870413335   0.132467283314095   0.187543735443821   1.0
F13   F   0.963989631999084   0.106851138423829   0.802843118804799   1.0
N14   N   0.419465268347051   0.440631749998393   0.309980627637329   1.0
Ge15   Ge   0.069489352282495   0.458338781873779   0.957704647418297   1.0




# HOIP entry ID:                    0007
# Khazana ID:                       1857
# Organic cation source:            B.Saparov et al., Chem. Rev. 116, 4558 (2016)
# Label:                            Ethylammonium Germanium Fluoride
# Material class:                   Hybrid organic-inorganic perovskite ( MC_ino )
# Geometry class:                   Bulk crystalline materials ( GC_cry )
# Organic cation chemical formula:  CH3CH2NH3
# Number of atom types:             5
# Total number of atoms:            15
# Atom types:                       C H N  Ge F
# Number of each atom:              2 8 1  1 3
# Bandgap, HSE06 (eV):              5.9521
# Bandgap, GGA (eV):                4.6879
# Kpoint for VBM:                   -0.3333, 0.375, 0
# Kpoint for CBM:                   0.0556, 0, 0.5
# Dielectric constant, electronic:  2.765
# Dielectric constant, ionic:       3.0257
# Dielectric constant, total:       5.7907
# Refractive index:                 1.6628
# Atomization energy (eV/atom):     -4.7391
# Relative energy1 (eV/atom):       -0.2159
# Relative energy2 (eV/atom):       0.3887
# Volume of the unit cell (A^3):    115.37
# Density (g/cm^3):                 2.5289
# Tool:                             VASP
# Pseudopotential:                  PAW
# Note:                             ENCUT=400eV, k-spacing_relax=0.20/Angstrom, k-spacing_bandgap=0.15/Angstrom
# Created by:                       C.Kim, T.D.Huan, S.Krishnan, R. Ramprasad