data_1
_audit_creation_method   'Generated by vasp2cif'
_cell_length_a    7.45693103151
_cell_length_b    3.82132121041
_cell_length_c    4.08447825814
_cell_angle_alpha    88.725274605
_cell_angle_beta    89.2703916862
_cell_angle_gamma    89.0276047494

_symmetry_space_group_name_H-M    'P 1'
loop_
_atom_site_label
_atom_site_type_symbol
_atom_site_fract_x
_atom_site_fract_y
_atom_site_fract_z
_atom_site_occupancy
C1   C   0.373260954362976   0.790635177664988   0.408857982119279   1.0
C2   C   0.530540641105432   0.538969329426571   0.428788674635591   1.0
H3   H   0.536480427278917   0.371646893207711   0.217114653008139   1.0
H4   H   0.651919326197124   0.690829464115311   0.435574926961984   1.0
H5   H   0.189018015531289   0.450037616130040   0.196177887439696   1.0
H6   H   0.091359729398548   0.783710313267925   0.397533012767752   1.0
H7   H   0.365888493079154   0.953061648661098   0.622391639497273   1.0
H8   H   0.523038230208556   0.374935763107764   0.649358037357040   1.0
H9   H   0.379488514236492   0.951597719927214   0.187534704120580   1.0
H10   H   0.181179167646832   0.436249180643280   0.600455994085557   1.0
F11   F   0.906543565468091   0.113557424469207   0.401908529355531   1.0
F12   F   0.132310577911284   0.120647084916705   0.904362883103126   1.0
F13   F   0.686171086048255   0.965688790868796   0.919114638404992   1.0
N14   N   0.196995527488234   0.604139661725384   0.399990593481846   1.0
Ge15   Ge   0.863985744038771   0.311633931868023   0.933385843661583   1.0




# HOIP entry ID:                    0008
# Khazana ID:                       1858
# Organic cation source:            B.Saparov et al., Chem. Rev. 116, 4558 (2016)
# Label:                            Ethylammonium Germanium Fluoride
# Material class:                   Hybrid organic-inorganic perovskite ( MC_ino )
# Geometry class:                   Bulk crystalline materials ( GC_cry )
# Organic cation chemical formula:  CH3CH2NH3
# Number of atom types:             5
# Total number of atoms:            15
# Atom types:                       C H N  Ge F
# Number of each atom:              2 8 1  1 3
# Bandgap, HSE06 (eV):              5.744
# Bandgap, GGA (eV):                4.5073
# Kpoint for VBM:                   0.5, 0.5, 0.5
# Kpoint for CBM:                   0.1, 0, 0.5
# Dielectric constant, electronic:  2.7876
# Dielectric constant, ionic:       14.5954
# Dielectric constant, total:       17.383
# Refractive index:                 1.6696
# Atomization energy (eV/atom):     -4.7287
# Relative energy1 (eV/atom):       -0.2055
# Relative energy2 (eV/atom):       0.3991
# Volume of the unit cell (A^3):    116.33
# Density (g/cm^3):                 2.508
# Tool:                             VASP
# Pseudopotential:                  PAW
# Note:                             ENCUT=400eV, k-spacing_relax=0.20/Angstrom, k-spacing_bandgap=0.15/Angstrom
# Created by:                       C.Kim, T.D.Huan, S.Krishnan, R. Ramprasad