data_1
_audit_creation_method   'Generated by vasp2cif'
_cell_length_a    4.5826114452
_cell_length_b    4.9854438242
_cell_length_c    6.66485028202
_cell_angle_alpha    73.6297273678
_cell_angle_beta    89.8494485117
_cell_angle_gamma    88.4114533505

_symmetry_space_group_name_H-M    'P 1'
loop_
_atom_site_label
_atom_site_type_symbol
_atom_site_fract_x
_atom_site_fract_y
_atom_site_fract_z
_atom_site_occupancy
C1   C   0.653094905376420   0.705356011001953   0.415325219002241   1.0
C2   C   0.641758529456951   0.417789772128096   0.378262873597670   1.0
C3   C   0.646492626687198   0.449008268984478   0.144735153410423   1.0
H4   H   0.852636762981227   0.536974503804544   0.077483392789716   1.0
H5   H   0.625468773031159   0.249672023740025   0.113196253282098   1.0
H6   H   0.442250844474017   0.313522871925535   0.446898204367528   1.0
H7   H   0.829648490615490   0.287428664061110   0.453418625638463   1.0
H8   H   0.472025020219071   0.574778286033613   0.713616822937219   1.0
H9   H   0.646898952025055   0.875071098562756   0.674443702362176   1.0
H10   H   0.466315985854699   0.586117456949836   0.066649886017274   1.0
H11   H   0.850860137912285   0.811456850222818   0.350280627966747   1.0
H12   H   0.464745645963326   0.835164310488530   0.344990531383310   1.0
H13   H   0.836079903282609   0.574426169548289   0.713765012973262   1.0
F14   F   0.706044632757084   0.082598106321207   0.851236009089796   1.0
F15   F   0.162357978908773   0.414567971903992   0.760798902451349   1.0
F16   F   0.141119252482873   0.058368792979067   0.154567020449719   1.0
N17   N   0.651325806572331   0.683888345816186   0.644208739297078   1.0
Ge18   Ge   0.131955751399488   0.013900495527956   0.884993022983963   1.0




# HOIP entry ID:                    0010
# Khazana ID:                       1860
# Organic cation source:            S.Kataoka et al., J. Am. Chem. Soc. 137, 4158 (2015)
# Label:                            Propylammonium Germanium Fluoride
# Material class:                   Hybrid organic-inorganic perovskite ( MC_ino )
# Geometry class:                   Bulk crystalline materials ( GC_cry )
# Organic cation chemical formula:  CH3CH2CH2NH3
# Number of atom types:             5
# Total number of atoms:            18
# Atom types:                       C H N  Ge F
# Number of each atom:              3 10 1  1 3
# Bandgap, HSE06 (eV):              5.7402
# Bandgap, GGA (eV):                4.5505
# Kpoint for VBM:                   0.5, 0.5, 0
# Kpoint for CBM:                   0.0556, 0, 0.5
# Dielectric constant, electronic:  2.622
# Dielectric constant, ionic:       3.1627
# Dielectric constant, total:       5.7847
# Refractive index:                 1.6193
# Atomization energy (eV/atom):     -4.8101
# Relative energy1 (eV/atom):       -0.2489
# Relative energy2 (eV/atom):       0.2549
# Volume of the unit cell (A^3):    146.04
# Density (g/cm^3):                 2.1573
# Tool:                             VASP
# Pseudopotential:                  PAW
# Note:                             ENCUT=400eV, k-spacing_relax=0.20/Angstrom, k-spacing_bandgap=0.15/Angstrom
# Created by:                       C.Kim, T.D.Huan, S.Krishnan, R. Ramprasad