data_1
_audit_creation_method   'Generated by vasp2cif'
_cell_length_a    4.5680301402
_cell_length_b    4.84971269073
_cell_length_c    6.76097728097
_cell_angle_alpha    106.263994158
_cell_angle_beta    80.6733335928
_cell_angle_gamma    91.015762746

_symmetry_space_group_name_H-M    'P 1'
loop_
_atom_site_label
_atom_site_type_symbol
_atom_site_fract_x
_atom_site_fract_y
_atom_site_fract_z
_atom_site_occupancy
C1   C   0.413524478319253   0.737258569921622   0.604156201069451   1.0
C2   C   0.366056432010005   0.458251325793697   0.664595886263371   1.0
C3   C   0.435712601882599   0.492542345381700   0.882088894301567   1.0
H4   H   0.300882664280195   0.667961861548491   0.994063902273602   1.0
H5   H   0.389644763753644   0.298088651714508   0.928560127247707   1.0
H6   H   0.507866530407405   0.286699064964999   0.552165883809685   1.0
H7   H   0.134497619487043   0.394113600359240   0.658751069171977   1.0
H8   H   0.396114801294964   0.550390588854214   0.289417397384987   1.0
H9   H   0.311083183836708   0.900338178904704   0.359895231235065   1.0
H10   H   0.669566652960484   0.537387786569234   0.887176136938571   1.0
H11   H   0.298534419661202   0.915327619902015   0.724465474270012   1.0
H12   H   0.646826341338425   0.786440286693761   0.575438314254228   1.0
H13   H   0.068442058732551   0.665769036585822   0.421112939590699   1.0
F14   F   0.391827037306328   0.127667756807156   0.197960779653449   1.0
F15   F   0.844202392627885   0.482022158779287   0.213080032218784   1.0
F16   F   0.869568604161103   0.027296195357735   0.857923813049872   1.0
N17   N   0.288682015011005   0.716035123019239   0.408577640013768   1.0
Ge18   Ge   0.837367402929281   0.068299848842585   0.146320277253309   1.0




# HOIP entry ID:                    0011
# Khazana ID:                       1861
# Organic cation source:            S.Kataoka et al., J. Am. Chem. Soc. 137, 4158 (2015)
# Label:                            Propylammonium Germanium Fluoride
# Material class:                   Hybrid organic-inorganic perovskite ( MC_ino )
# Geometry class:                   Bulk crystalline materials ( GC_cry )
# Organic cation chemical formula:  CH3CH2CH2NH3
# Number of atom types:             5
# Total number of atoms:            18
# Atom types:                       C H N  Ge F
# Number of each atom:              3 10 1  1 3
# Bandgap, HSE06 (eV):              5.5243
# Bandgap, GGA (eV):                4.3129
# Kpoint for VBM:                   0.5, 0.5, 0.0263
# Kpoint for CBM:                   0.2778, 0.25, 0.5
# Dielectric constant, electronic:  2.6918
# Dielectric constant, ionic:       2.1855
# Dielectric constant, total:       4.8773
# Refractive index:                 1.6407
# Atomization energy (eV/atom):     -4.8029
# Relative energy1 (eV/atom):       -0.2417
# Relative energy2 (eV/atom):       0.2621
# Volume of the unit cell (A^3):    141.82
# Density (g/cm^3):                 2.2215
# Tool:                             VASP
# Pseudopotential:                  PAW
# Note:                             ENCUT=400eV, k-spacing_relax=0.20/Angstrom, k-spacing_bandgap=0.15/Angstrom
# Created by:                       C.Kim, T.D.Huan, S.Krishnan, R. Ramprasad