data_1
_audit_creation_method   'Generated by vasp2cif'
_cell_length_a    4.86215289262
_cell_length_b    5.13501210274
_cell_length_c    6.13229071196
_cell_angle_alpha    106.866360566
_cell_angle_beta    75.9306835316
_cell_angle_gamma    94.0790557712

_symmetry_space_group_name_H-M    'P 1'
loop_
_atom_site_label
_atom_site_type_symbol
_atom_site_fract_x
_atom_site_fract_y
_atom_site_fract_z
_atom_site_occupancy
C1   C   0.508650829633415   0.649469318503431   0.603430392694636   1.0
C2   C   0.390003407051838   0.442817814072789   0.736552738312648   1.0
C3   C   0.608279747975762   0.371469534669709   0.849997820310797   1.0
H4   H   0.669614670742910   0.550515738796419   0.975141044676640   1.0
H5   H   0.525295662143240   0.222923233673365   0.943761518207033   1.0
H6   H   0.327135381097484   0.259157014346297   0.615748990995589   1.0
H7   H   0.198569853753545   0.520718426858625   0.868814373560335   1.0
H8   H   0.286955671640048   0.489421119149621   0.335841166488676   1.0
H9   H   0.383989604027590   0.813070686621359   0.361043614872568   1.0
H10   H   0.802194078410106   0.287646696982777   0.720996232362424   1.0
H11   H   0.526316802961360   0.850347963707191   0.721024891707180   1.0
H12   H   0.713457566934148   0.587201633194729   0.485889323878370   1.0
H13   H   0.120565339402844   0.737571795144951   0.563881609092544   1.0
F14   F   0.513146013557993   0.053235458432270   0.226022348496680   1.0
F15   F   0.987704095846113   0.376729158843859   0.188740473278909   1.0
F16   F   0.967129837530667   0.924543444285841   0.849281255185394   1.0
N17   N   0.314152423008101   0.671888914298674   0.453602006055109   1.0
Ge18   Ge   0.924779014282781   0.005542048418138   0.176420199824687   1.0




# HOIP entry ID:                    0012
# Khazana ID:                       1862
# Organic cation source:            S.Kataoka et al., J. Am. Chem. Soc. 137, 4158 (2015)
# Label:                            Propylammonium Germanium Fluoride
# Material class:                   Hybrid organic-inorganic perovskite ( MC_ino )
# Geometry class:                   Bulk crystalline materials ( GC_cry )
# Organic cation chemical formula:  CH3CH2CH2NH3
# Number of atom types:             5
# Total number of atoms:            18
# Atom types:                       C H N  Ge F
# Number of each atom:              3 10 1  1 3
# Bandgap, HSE06 (eV):              5.9081
# Bandgap, GGA (eV):                4.6503
# Kpoint for VBM:                   0.5, 0.5, 0.5
# Kpoint for CBM:                   0.5, 0.5, 0.5
# Dielectric constant, electronic:  2.6487
# Dielectric constant, ionic:       1.8851
# Dielectric constant, total:       4.5338
# Refractive index:                 1.6275
# Atomization energy (eV/atom):     -4.8108
# Relative energy1 (eV/atom):       -0.2497
# Relative energy2 (eV/atom):       0.2541
# Volume of the unit cell (A^3):    142.12
# Density (g/cm^3):                 2.2168
# Tool:                             VASP
# Pseudopotential:                  PAW
# Note:                             ENCUT=400eV, k-spacing_relax=0.20/Angstrom, k-spacing_bandgap=0.15/Angstrom
# Created by:                       C.Kim, T.D.Huan, S.Krishnan, R. Ramprasad