data_1
_audit_creation_method   'Generated by vasp2cif'
_cell_length_a    4.98374973736
_cell_length_b    5.20408877358
_cell_length_c    5.47671528167
_cell_angle_alpha    76.4068608809
_cell_angle_beta    89.4193281427
_cell_angle_gamma    84.6318998412

_symmetry_space_group_name_H-M    'P 1'
loop_
_atom_site_label
_atom_site_type_symbol
_atom_site_fract_x
_atom_site_fract_y
_atom_site_fract_z
_atom_site_occupancy
C1   C   0.613835239094826   0.626089194012188   0.386676558915674   1.0
C2   C   0.656496459017532   0.405739291680952   0.247977327903115   1.0
C3   C   0.391890696703094   0.294022190467231   0.209308069558922   1.0
H4   H   0.233800407661690   0.451032166765842   0.132640678413544   1.0
H5   H   0.417329902829955   0.160596940213019   0.084588769817330   1.0
H6   H   0.803596940494458   0.246676386545943   0.345114036305176   1.0
H7   H   0.749236359836821   0.487517389721326   0.069022116510375   1.0
H8   H   0.575721425672214   0.352037243387706   0.729786521709087   1.0
H9   H   0.279790292310054   0.497526559864738   0.618719926542617   1.0
H10   H   0.318154182850733   0.179482494487260   0.386304612741860   1.0
H11   H   0.801261424491138   0.696914604456772   0.427929230064244   1.0
H12   H   0.481351117430250   0.790429364412340   0.280703597615990   1.0
H13   H   0.493243785142973   0.668431907026580   0.738906264953798   1.0
F14   F   0.615580172794147   0.967799085327442   0.802558050927850   1.0
F15   F   0.997136013588268   0.326115103080667   0.755467081704516   1.0
F16   F   0.043296150440156   0.891444446664714   0.145958480168126   1.0
N17   N   0.478984263594775   0.529485929453671   0.634659212644785   1.0
Ge18   Ge   0.012305166046950   0.947359702431619   0.797059463503217   1.0




# HOIP entry ID:                    0013
# Khazana ID:                       1863
# Organic cation source:            S.Kataoka et al., J. Am. Chem. Soc. 137, 4158 (2015)
# Label:                            Propylammonium Germanium Fluoride
# Material class:                   Hybrid organic-inorganic perovskite ( MC_ino )
# Geometry class:                   Bulk crystalline materials ( GC_cry )
# Organic cation chemical formula:  CH3CH2CH2NH3
# Number of atom types:             5
# Total number of atoms:            18
# Atom types:                       C H N  Ge F
# Number of each atom:              3 10 1  1 3
# Bandgap, HSE06 (eV):              5.9717
# Bandgap, GGA (eV):                4.7166
# Kpoint for VBM:                   0.5, 0.5, 0.5
# Kpoint for CBM:                   0.5, 0, 0
# Dielectric constant, electronic:  2.719
# Dielectric constant, ionic:       1.7765
# Dielectric constant, total:       4.4955
# Refractive index:                 1.6489
# Atomization energy (eV/atom):     -4.8095
# Relative energy1 (eV/atom):       -0.2483
# Relative energy2 (eV/atom):       0.2555
# Volume of the unit cell (A^3):    137.45
# Density (g/cm^3):                 2.2921
# Tool:                             VASP
# Pseudopotential:                  PAW
# Note:                             ENCUT=400eV, k-spacing_relax=0.20/Angstrom, k-spacing_bandgap=0.15/Angstrom
# Created by:                       C.Kim, T.D.Huan, S.Krishnan, R. Ramprasad