data_1
_audit_creation_method   'Generated by vasp2cif'
_cell_length_a    8.90634789114
_cell_length_b    3.75046052239
_cell_length_c    4.79380513362
_cell_angle_alpha    69.5162576434
_cell_angle_beta    75.2595449034
_cell_angle_gamma    65.842882329

_symmetry_space_group_name_H-M    'P 1'
loop_
_atom_site_label
_atom_site_type_symbol
_atom_site_fract_x
_atom_site_fract_y
_atom_site_fract_z
_atom_site_occupancy
C1   C   0.906392384542677   0.315860301614844   0.337448979021570   1.0
C2   C   0.746003549687945   0.258616849769119   0.512070955396577   1.0
C3   C   0.638056739042125   0.309857771935759   0.288316326259773   1.0
H4   H   0.534635464956798   0.206968743565702   0.399476831837715   1.0
H5   H   0.711212675419779   0.137149805510286   0.126921241181541   1.0
H6   H   0.770033192087424   0.959379751778516   0.678608796901460   1.0
H7   H   0.679352709509890   0.484472727307877   0.637354173783562   1.0
H8   H   0.080859737019518   0.989062442351871   0.646241971055483   1.0
H9   H   0.961099952093633   0.443040552329841   0.689159666633649   1.0
H10   H   0.977542239552726   0.089848943562867   0.215229417640489   1.0
H11   H   0.587652886056246   0.629436398023578   0.163738065358242   1.0
H12   H   0.878809403929482   0.612743200654539   0.173897597422617   1.0
H13   H   0.112895495178615   0.409169039288029   0.410729944190990   1.0
F14   F   0.372009225445454   0.861131479320797   0.639629968086303   1.0
F15   F   0.127311010042718   0.528781816838628   0.869259314502991   1.0
F16   F   0.247132752357437   0.674800947888281   0.239123284038071   1.0
N17   N   0.020907364013650   0.289576275587094   0.530383959127078   1.0
Ge18   Ge   0.355443219063909   0.371322952672455   0.938029507561883   1.0




# HOIP entry ID:                    0015
# Khazana ID:                       1865
# Organic cation source:            S.Kataoka et al., J. Am. Chem. Soc. 137, 4158 (2015)
# Label:                            Propylammonium Germanium Fluoride
# Material class:                   Hybrid organic-inorganic perovskite ( MC_ino )
# Geometry class:                   Bulk crystalline materials ( GC_cry )
# Organic cation chemical formula:  CH3CH2CH2NH3
# Number of atom types:             5
# Total number of atoms:            18
# Atom types:                       C H N  Ge F
# Number of each atom:              3 10 1  1 3
# Bandgap, HSE06 (eV):              6.0431
# Bandgap, GGA (eV):                4.7344
# Kpoint for VBM:                   0.5, 0.5, 0
# Kpoint for CBM:                   0.5, 0, 0.5
# Dielectric constant, electronic:  2.7489
# Dielectric constant, ionic:       1.919
# Dielectric constant, total:       4.668
# Refractive index:                 1.658
# Atomization energy (eV/atom):     -4.7921
# Relative energy1 (eV/atom):       -0.231
# Relative energy2 (eV/atom):       0.2728
# Volume of the unit cell (A^3):    135.7
# Density (g/cm^3):                 2.3217
# Tool:                             VASP
# Pseudopotential:                  PAW
# Note:                             ENCUT=400eV, k-spacing_relax=0.20/Angstrom, k-spacing_bandgap=0.15/Angstrom
# Created by:                       C.Kim, T.D.Huan, S.Krishnan, R. Ramprasad