data_1
_audit_creation_method   'Generated by vasp2cif'
_cell_length_a    4.70393834151
_cell_length_b    3.79597086625
_cell_length_c    8.34584839863
_cell_angle_alpha    91.0132864609
_cell_angle_beta    111.331359366
_cell_angle_gamma    99.3112195397

_symmetry_space_group_name_H-M    'P 1'
loop_
_atom_site_label
_atom_site_type_symbol
_atom_site_fract_x
_atom_site_fract_y
_atom_site_fract_z
_atom_site_occupancy
C1   C   0.059538959759088   0.565282090016019   0.461796449226895   1.0
C2   C   0.721613984616909   0.595472848067978   0.419747681998686   1.0
C3   C   0.580249077619371   0.743240752884013   0.245402676243756   1.0
H4   H   0.726399920791216   0.984892418373271   0.232659094070748   1.0
H5   H   0.356519647943706   0.811081262326489   0.230047096217838   1.0
H6   H   0.589686944757240   0.331067267974241   0.420233941807965   1.0
H7   H   0.707252281040603   0.765435392936574   0.522426308334452   1.0
H8   H   0.027130480328410   0.243076316662027   0.659278264372155   1.0
H9   H   0.238204470431654   0.636628585073062   0.734313897163595   1.0
H10   H   0.084486429815520   0.381722160129179   0.368306530018266   1.0
H11   H   0.543520255279219   0.545570780209488   0.140313792675165   1.0
H12   H   0.202070788386628   0.823378306687644   0.463674795325325   1.0
H13   H   0.389693798976211   0.326789799692847   0.661300849543764   1.0
F14   F   0.258405647495955   0.944401340254025   0.890062073005140   1.0
F15   F   0.700485167049578   0.126720807551507   0.722956555970356   1.0
F16   F   0.016095300315570   0.247229894056062   0.098774420185386   1.0
N17   N   0.190091600461763   0.433186067823463   0.638195149467613   1.0
Ge18   Ge   0.869095244931266   0.843653909282139   0.934760424372769   1.0




# HOIP entry ID:                    0016
# Khazana ID:                       1866
# Organic cation source:            S.Kataoka et al., J. Am. Chem. Soc. 137, 4158 (2015)
# Label:                            Propylammonium Germanium Fluoride
# Material class:                   Hybrid organic-inorganic perovskite ( MC_ino )
# Geometry class:                   Bulk crystalline materials ( GC_cry )
# Organic cation chemical formula:  CH3CH2CH2NH3
# Number of atom types:             5
# Total number of atoms:            18
# Atom types:                       C H N  Ge F
# Number of each atom:              3 10 1  1 3
# Bandgap, HSE06 (eV):              5.8154
# Bandgap, GGA (eV):                4.5322
# Kpoint for VBM:                   0.5, 0.5, 0.5
# Kpoint for CBM:                   0, 0, 0.0833
# Dielectric constant, electronic:  2.7295
# Dielectric constant, ionic:       2.2047
# Dielectric constant, total:       4.9341
# Refractive index:                 1.6521
# Atomization energy (eV/atom):     -4.8058
# Relative energy1 (eV/atom):       -0.2447
# Relative energy2 (eV/atom):       0.2592
# Volume of the unit cell (A^3):    136.51
# Density (g/cm^3):                 2.3079
# Tool:                             VASP
# Pseudopotential:                  PAW
# Note:                             ENCUT=400eV, k-spacing_relax=0.20/Angstrom, k-spacing_bandgap=0.15/Angstrom
# Created by:                       C.Kim, T.D.Huan, S.Krishnan, R. Ramprasad