data_1
_audit_creation_method   'Generated by vasp2cif'
_cell_length_a    5.02891819073
_cell_length_b    5.1172566994
_cell_length_c    7.53122658513
_cell_angle_alpha    59.7043548264
_cell_angle_beta    123.23388038
_cell_angle_gamma    107.517957148

_symmetry_space_group_name_H-M    'P 1'
loop_
_atom_site_label
_atom_site_type_symbol
_atom_site_fract_x
_atom_site_fract_y
_atom_site_fract_z
_atom_site_occupancy
C1   C   0.897214620976911   0.618182903090450   0.353335750694207   1.0
C2   C   0.733527830365212   0.767882143539403   0.396625100196999   1.0
C3   C   0.503865260947983   0.006407762839323   0.177159288997288   1.0
H4   H   0.624408302477747   0.191667614630802   0.089311532996923   1.0
H5   H   0.392526492495214   0.096005532443627   0.222938956913481   1.0
H6   H   0.605510139511260   0.592881646443253   0.485574593362557   1.0
H7   H   0.915503392424633   0.872385887244015   0.512252045317545   1.0
H8   H   0.963729999778025   0.212968155681899   0.656802381831824   1.0
H9   H   0.260426056973742   0.455357748807962   0.703897029804310   1.0
H10   H   0.725620551309483   0.516683916720908   0.234200089378021   1.0
H11   H   0.320279786282598   0.919385990302935   0.050766000544677   1.0
H12   H   0.052776718971288   0.777490323835686   0.284904418107828   1.0
H13   H   0.219238582824467   0.263886802029063   0.559357681692191   1.0
F14   F   0.303450429611033   0.641630833040438   0.874790662040091   1.0
F15   F   0.814053582680273   0.204499810480030   0.857335881980163   1.0
F16   F   0.191694062616371   0.321844887467733   0.266378536798250   1.0
N17   N   0.102003199492565   0.367027106636051   0.583363919444821   1.0
Ge18   Ge   0.943370990261180   0.551400934766392   0.930616129898930   1.0




# HOIP entry ID:                    0017
# Khazana ID:                       1867
# Organic cation source:            S.Kataoka et al., J. Am. Chem. Soc. 137, 4158 (2015)
# Label:                            Propylammonium Germanium Fluoride
# Material class:                   Hybrid organic-inorganic perovskite ( MC_ino )
# Geometry class:                   Bulk crystalline materials ( GC_cry )
# Organic cation chemical formula:  CH3CH2CH2NH3
# Number of atom types:             5
# Total number of atoms:            18
# Atom types:                       C H N  Ge F
# Number of each atom:              3 10 1  1 3
# Bandgap, HSE06 (eV):              5.694
# Bandgap, GGA (eV):                4.4157
# Kpoint for VBM:                   0.5, 0.5, 0.5
# Kpoint for CBM:                   -0.3125, 0.3125, 0.1111
# Dielectric constant, electronic:  2.716
# Dielectric constant, ionic:       2.0339
# Dielectric constant, total:       4.7499
# Refractive index:                 1.648
# Atomization energy (eV/atom):     -4.7794
# Relative energy1 (eV/atom):       -0.2183
# Relative energy2 (eV/atom):       0.2855
# Volume of the unit cell (A^3):    139.89
# Density (g/cm^3):                 2.2521
# Tool:                             VASP
# Pseudopotential:                  PAW
# Note:                             ENCUT=400eV, k-spacing_relax=0.20/Angstrom, k-spacing_bandgap=0.15/Angstrom
# Created by:                       C.Kim, T.D.Huan, S.Krishnan, R. Ramprasad