data_1
_audit_creation_method   'Generated by vasp2cif'
_cell_length_a    7.11682577113
_cell_length_b    5.6349300241
_cell_length_c    4.36155581642
_cell_angle_alpha    90.9943976281
_cell_angle_beta    85.0491412428
_cell_angle_gamma    109.323828201

_symmetry_space_group_name_H-M    'P 1'
loop_
_atom_site_label
_atom_site_type_symbol
_atom_site_fract_x
_atom_site_fract_y
_atom_site_fract_z
_atom_site_occupancy
C1   C   0.186271290305200   0.642961773582137   0.449420709836232   1.0
C2   C   0.513006270168539   0.215855119447070   0.480135367595807   1.0
C3   C   0.364344124960155   0.332454733764202   0.380029020149124   1.0
C4   C   0.371765066338391   0.583718298015476   0.525904490446720   1.0
H5   H   0.751132154783264   0.515576560811752   0.269628636477719   1.0
H6   H   0.821208986774735   0.310176749523969   0.468626980465885   1.0
H7   H   0.736817820741564   0.525576877163147   0.652169670163694   1.0
H8   H   0.150779548466069   0.591461398842398   0.212506268357785   1.0
H9   H   0.061863772404259   0.535993224200794   0.609429195035425   1.0
H10   H   0.197582325455628   0.837587968758555   0.478190314912076   1.0
H11   H   0.216463649336944   0.195093700552405   0.427152944277800   1.0
H12   H   0.386517935273815   0.358955880060549   0.130385004150746   1.0
H13   H   0.376482672006816   0.578705887193429   0.776073807469920   1.0
H14   H   0.509021228374543   0.729090358338638   0.437959235586895   1.0
H15   H   0.475125114269581   0.140285576218190   0.714978890771576   1.0
H16   H   0.520896647583278   0.064664392785239   0.326422763081275   1.0
F17   F   0.127132405964026   0.980016934574792   0.939302075030831   1.0
F18   F   0.874470725734213   0.998432170544767   0.488616719341394   1.0
F19   F   0.731845829614045   0.693030340574865   0.976717069210750   1.0
N20   N   0.720745039208225   0.404817558921323   0.466951138655581   1.0
Ge21   Ge   0.890237392236727   0.048614496126291   0.947129698982614   1.0




# HOIP entry ID:                    0018
# Khazana ID:                       1868
# Organic cation source:            H. Hu et al., Sci. Rep. 6, 33546 (2016)
# Label:                            Butylammonium Germanium Fluoride
# Material class:                   Hybrid organic-inorganic perovskite ( MC_ino )
# Geometry class:                   Bulk crystalline materials ( GC_cry )
# Organic cation chemical formula:  CH3CH2CH2CH2NH3
# Number of atom types:             5
# Total number of atoms:            21
# Atom types:                       C H N  Ge F
# Number of each atom:              4 12 1  1 3
# Bandgap, HSE06 (eV):              6.0509
# Bandgap, GGA (eV):                4.8367
# Kpoint for VBM:                   0.5, 0, 0.5
# Kpoint for CBM:                   -0.25, 0.0625, 0.2222
# Dielectric constant, electronic:  2.6555
# Dielectric constant, ionic:       3.101
# Dielectric constant, total:       5.7565
# Refractive index:                 1.6296
# Atomization energy (eV/atom):     -4.8413
# Relative energy1 (eV/atom):       -0.2531
# Relative energy2 (eV/atom):       0.1787
# Volume of the unit cell (A^3):    164.43
# Density (g/cm^3):                 2.0577
# Tool:                             VASP
# Pseudopotential:                  PAW
# Note:                             ENCUT=400eV, k-spacing_relax=0.20/Angstrom, k-spacing_bandgap=0.15/Angstrom
# Created by:                       C.Kim, T.D.Huan, S.Krishnan, R. Ramprasad