data_1
_audit_creation_method   'Generated by vasp2cif'
_cell_length_a    4.4333184356
_cell_length_b    5.46194620311
_cell_length_c    7.07224796259
_cell_angle_alpha    69.8252124765
_cell_angle_beta    98.1913540863
_cell_angle_gamma    91.4509091155

_symmetry_space_group_name_H-M    'P 1'
loop_
_atom_site_label
_atom_site_type_symbol
_atom_site_fract_x
_atom_site_fract_y
_atom_site_fract_z
_atom_site_occupancy
C1   C   0.376421164305754   0.631903004398048   0.779311657446584   1.0
C2   C   0.547066776426050   0.198548329573597   0.472994826330968   1.0
C3   C   0.412305934921328   0.286918646550454   0.624730208912268   1.0
C4   C   0.575027558291531   0.513897796565168   0.671723260194121   1.0
H5   H   0.348831252512767   0.542644475930949   0.246161150714571   1.0
H6   H   0.534420629570718   0.352098662434358   0.156136086121848   1.0
H7   H   0.727553159880060   0.539943931748475   0.274007101083271   1.0
H8   H   0.189174516140319   0.750126837009127   0.672505857714356   1.0
H9   H   0.268646557374403   0.478755074790037   0.891982254839981   1.0
H10   H   0.506435020624899   0.750991106440388   0.855084616719473   1.0
H11   H   0.414692033730816   0.121895662793975   0.764643252257017   1.0
H12   H   0.173103997060316   0.342358349366613   0.566951539509503   1.0
H13   H   0.794969758416997   0.444939533699362   0.765727410779526   1.0
H14   H   0.630256528674934   0.665065437066453   0.533688237780844   1.0
H15   H   0.783295356228614   0.129133363453335   0.525956288918167   1.0
H16   H   0.416223303043573   0.044185710681909   0.439296770749962   1.0
F17   F   0.955516562128679   0.919152962808440   0.896785574140900   1.0
F18   F   0.538462047484899   0.003248511170355   0.119296764532798   1.0
F19   F   0.050520860151266   0.709817559979051   0.304125630317842   1.0
N20   N   0.539532145238134   0.423765191679905   0.272454467223113   1.0
Ge21   Ge   0.980774837793959   0.057629851860000   0.103517043712955   1.0




# HOIP entry ID:                    0021
# Khazana ID:                       1871
# Organic cation source:            H. Hu et al., Sci. Rep. 6, 33546 (2016)
# Label:                            Butylammonium Germanium Fluoride
# Material class:                   Hybrid organic-inorganic perovskite ( MC_ino )
# Geometry class:                   Bulk crystalline materials ( GC_cry )
# Organic cation chemical formula:  CH3CH2CH2CH2NH3
# Number of atom types:             5
# Total number of atoms:            21
# Atom types:                       C H N  Ge F
# Number of each atom:              4 12 1  1 3
# Bandgap, HSE06 (eV):              6.2182
# Bandgap, GGA (eV):                4.9757
# Kpoint for VBM:                   0.5, 0.5, 0
# Kpoint for CBM:                   0.5, 0.0714, 0
# Dielectric constant, electronic:  2.7196
# Dielectric constant, ionic:       2.1302
# Dielectric constant, total:       4.8498
# Refractive index:                 1.6491
# Atomization energy (eV/atom):     -4.8432
# Relative energy1 (eV/atom):       -0.255
# Relative energy2 (eV/atom):       0.1769
# Volume of the unit cell (A^3):    159.05
# Density (g/cm^3):                 2.1273
# Tool:                             VASP
# Pseudopotential:                  PAW
# Note:                             ENCUT=400eV, k-spacing_relax=0.20/Angstrom, k-spacing_bandgap=0.15/Angstrom
# Created by:                       C.Kim, T.D.Huan, S.Krishnan, R. Ramprasad