data_1
_audit_creation_method   'Generated by vasp2cif'
_cell_length_a    6.04581848034
_cell_length_b    5.00506041983
_cell_length_c    4.6227207507
_cell_angle_alpha    84.6073489792
_cell_angle_beta    86.4095029504
_cell_angle_gamma    91.5307091503

_symmetry_space_group_name_H-M    'P 1'
loop_
_atom_site_label
_atom_site_type_symbol
_atom_site_fract_x
_atom_site_fract_y
_atom_site_fract_z
_atom_site_occupancy
C1   C   0.382586820071879   0.696635297802999   0.127973055107489   1.0
C2   C   0.561503702741845   0.902605954745425   0.177806200733038   1.0
C3   C   0.484175747390601   0.073721169313764   0.414330541862519   1.0
H4   H   0.439215138425595   0.945634528344534   0.614614095499114   1.0
H5   H   0.609293690406219   0.221876193615024   0.456235725629163   1.0
H6   H   0.336399709678879   0.172689464279664   0.345975653079456   1.0
H7   H   0.891933550062923   0.904340304167157   0.286136587597689   1.0
H8   H   0.612703465170426   0.027301135305052   0.978592836561823   1.0
H9   H   0.443341718298370   0.552745842066201   0.981556891927852   1.0
H10   H   0.243250929347816   0.798438394623979   0.033707438514220   1.0
H11   H   0.321844810369477   0.589436924449124   0.334802121008714   1.0
H12   H   0.817620805807429   0.637758222026193   0.113564895105704   1.0
H13   H   0.743003355518226   0.649768451183057   0.466998405847150   1.0
F14   F   0.759152883272080   0.432123274407822   0.780065795091893   1.0
F15   F   0.980273413411638   0.946594941339903   0.743264923937872   1.0
F16   F   0.008878202724482   0.259071670331288   0.199949939179525   1.0
N17   N   0.768454649915874   0.762102966383559   0.267680912473296   1.0
Ge18   Ge   0.062877407386217   0.313085265615236   0.773323980843529   1.0




# HOIP entry ID:                    0022
# Khazana ID:                       1872
# Organic cation source:            C.C.Stoumpos et al., J. Am. Chem. Soc. 137, 6804 (2015)
# Label:                            Isopropylammonium Germanium Fluoride
# Material class:                   Hybrid organic-inorganic perovskite ( MC_ino )
# Geometry class:                   Bulk crystalline materials ( GC_cry )
# Organic cation chemical formula:  (CH3)2CHNH3
# Number of atom types:             5
# Total number of atoms:            18
# Atom types:                       C H N  Ge F
# Number of each atom:              3 10 1  1 3
# Bandgap, HSE06 (eV):              6.1891
# Bandgap, GGA (eV):                4.9555
# Kpoint for VBM:                   0, 0.5, 0.5
# Kpoint for CBM:                   0.4167, -0.3125, 0.4444
# Dielectric constant, electronic:  2.6863
# Dielectric constant, ionic:       1.8284
# Dielectric constant, total:       4.5147
# Refractive index:                 1.639
# Atomization energy (eV/atom):     -4.821
# Relative energy1 (eV/atom):       -0.2539
# Relative energy2 (eV/atom):       0.25
# Volume of the unit cell (A^3):    138.91
# Density (g/cm^3):                 2.268
# Tool:                             VASP
# Pseudopotential:                  PAW
# Note:                             ENCUT=400eV, k-spacing_relax=0.20/Angstrom, k-spacing_bandgap=0.15/Angstrom
# Created by:                       C.Kim, T.D.Huan, S.Krishnan, R. Ramprasad