data_1
_audit_creation_method   'Generated by vasp2cif'
_cell_length_a    5.08645698627
_cell_length_b    5.33941412664
_cell_length_c    5.39118464736
_cell_angle_alpha    90.8235413797
_cell_angle_beta    100.435404604
_cell_angle_gamma    73.2356369879

_symmetry_space_group_name_H-M    'P 1'
loop_
_atom_site_label
_atom_site_type_symbol
_atom_site_fract_x
_atom_site_fract_y
_atom_site_fract_z
_atom_site_occupancy
C1   C   0.242431258970129   0.749703293100204   0.538830846188532   1.0
C2   C   0.323020747457647   0.891468440023274   0.337493939424782   1.0
C3   C   0.530084504749354   0.041900952809236   0.434394522175872   1.0
H4   H   0.418385007711201   0.227126418005412   0.502101702156111   1.0
H5   H   0.685625549223353   0.933016304085491   0.590970211991582   1.0
H6   H   0.634300525240299   0.079569324348711   0.285603685981393   1.0
H7   H   0.533460891154206   0.774326043333879   0.034154230964226   1.0
H8   H   0.133277787828106   0.018377344887007   0.224923297964075   1.0
H9   H   0.150318434611840   0.887248604071296   0.671278868743499   1.0
H10   H   0.424361097163263   0.605131790261730   0.644563669043833   1.0
H11   H   0.091371091567098   0.649634174543792   0.457391145079654   1.0
H12   H   0.308787848970823   0.603453760074935   0.064105295465353   1.0
H13   H   0.616887875518181   0.547363117287553   0.265088358069100   1.0
F14   F   0.893913050284425   0.374201356351385   0.495273554409813   1.0
F15   F   0.902604361419080   0.679086284504258   0.937757428948721   1.0
F16   F   0.321653820110669   0.246100728450713   0.909433598606903   1.0
N17   N   0.451761472650432   0.689674119550816   0.160095066397652   1.0
Ge18   Ge   0.925684675369880   0.317367944310334   0.854560578389034   1.0




# HOIP entry ID:                    0023
# Khazana ID:                       1873
# Organic cation source:            C.C.Stoumpos et al., J. Am. Chem. Soc. 137, 6804 (2015)
# Label:                            Isopropylammonium Germanium Fluoride
# Material class:                   Hybrid organic-inorganic perovskite ( MC_ino )
# Geometry class:                   Bulk crystalline materials ( GC_cry )
# Organic cation chemical formula:  (CH3)2CHNH3
# Number of atom types:             5
# Total number of atoms:            18
# Atom types:                       C H N  Ge F
# Number of each atom:              3 10 1  1 3
# Bandgap, HSE06 (eV):              5.9083
# Bandgap, GGA (eV):                4.6744
# Kpoint for VBM:                   0.5, 0.5, 0.5
# Kpoint for CBM:                   0.375, -0.375, 0.2143
# Dielectric constant, electronic:  2.7273
# Dielectric constant, ionic:       1.8008
# Dielectric constant, total:       4.5281
# Refractive index:                 1.6515
# Atomization energy (eV/atom):     -4.8081
# Relative energy1 (eV/atom):       -0.2409
# Relative energy2 (eV/atom):       0.2629
# Volume of the unit cell (A^3):    137.76
# Density (g/cm^3):                 2.287
# Tool:                             VASP
# Pseudopotential:                  PAW
# Note:                             ENCUT=400eV, k-spacing_relax=0.20/Angstrom, k-spacing_bandgap=0.15/Angstrom
# Created by:                       C.Kim, T.D.Huan, S.Krishnan, R. Ramprasad