data_1
_audit_creation_method   'Generated by vasp2cif'
_cell_length_a    5.42719838759
_cell_length_b    4.31671455526
_cell_length_c    5.97849645708
_cell_angle_alpha    83.7611381721
_cell_angle_beta    92.9096188567
_cell_angle_gamma    86.7432097944

_symmetry_space_group_name_H-M    'P 1'
loop_
_atom_site_label
_atom_site_type_symbol
_atom_site_fract_x
_atom_site_fract_y
_atom_site_fract_z
_atom_site_occupancy
C1   C   0.675973849408329   0.647740093508534   0.641061416560959   1.0
C2   C   0.432186821157371   0.499583842380267   0.669955046175622   1.0
C3   C   0.273325078159960   0.649043755184237   0.836689892468913   1.0
H4   H   0.387563169777150   0.682377130951288   0.985804539122711   1.0
H5   H   0.125971206798209   0.501817054457955   0.888051791853948   1.0
H6   H   0.191155234299635   0.876730215155466   0.762957065163120   1.0
H7   H   0.407647264008642   0.435707788749710   0.325312698550025   1.0
H8   H   0.462250629352579   0.249312393949008   0.721487209726215   1.0
H9   H   0.775128840364988   0.637589269146940   0.803095377964008   1.0
H10   H   0.786948334053360   0.528010466850654   0.527243577314828   1.0
H11   H   0.645952685461011   0.890971543817931   0.570511912849447   1.0
H12   H   0.141034352976248   0.402765318833358   0.439424827403358   1.0
H13   H   0.245117787719217   0.759443818226663   0.387816627390410   1.0
F14   F   0.989735221133918   0.068145663949976   0.397098690881211   1.0
F15   F   0.822812816309154   0.618239661015284   0.163961619293629   1.0
F16   F   0.500887655914023   0.107707806825551   0.189381502255661   1.0
N17   N   0.296994497913814   0.529083638362916   0.440029414033243   1.0
Ge18   Ge   0.835164555192361   0.074250538634250   0.095376790992695   1.0




# HOIP entry ID:                    0024
# Khazana ID:                       1874
# Organic cation source:            C.C.Stoumpos et al., J. Am. Chem. Soc. 137, 6804 (2015)
# Label:                            Isopropylammonium Germanium Fluoride
# Material class:                   Hybrid organic-inorganic perovskite ( MC_ino )
# Geometry class:                   Bulk crystalline materials ( GC_cry )
# Organic cation chemical formula:  (CH3)2CHNH3
# Number of atom types:             5
# Total number of atoms:            18
# Atom types:                       C H N  Ge F
# Number of each atom:              3 10 1  1 3
# Bandgap, HSE06 (eV):              6.3889
# Bandgap, GGA (eV):                5.0755
# Kpoint for VBM:                   0.5, 0.5, 0.5
# Kpoint for CBM:                   0.5, 0.5, 0.0789
# Dielectric constant, electronic:  2.707
# Dielectric constant, ionic:       2.9899
# Dielectric constant, total:       5.6969
# Refractive index:                 1.6453
# Atomization energy (eV/atom):     -4.8155
# Relative energy1 (eV/atom):       -0.2483
# Relative energy2 (eV/atom):       0.2555
# Volume of the unit cell (A^3):    138.78
# Density (g/cm^3):                 2.2702
# Tool:                             VASP
# Pseudopotential:                  PAW
# Note:                             ENCUT=400eV, k-spacing_relax=0.20/Angstrom, k-spacing_bandgap=0.15/Angstrom
# Created by:                       C.Kim, T.D.Huan, S.Krishnan, R. Ramprasad