data_1
_audit_creation_method   'Generated by vasp2cif'
_cell_length_a    6.25983565749
_cell_length_b    4.35348730209
_cell_length_c    5.07629809248
_cell_angle_alpha    92.4102636554
_cell_angle_beta    91.7520375815
_cell_angle_gamma    95.0174063876

_symmetry_space_group_name_H-M    'P 1'
loop_
_atom_site_label
_atom_site_type_symbol
_atom_site_fract_x
_atom_site_fract_y
_atom_site_fract_z
_atom_site_occupancy
C1   C   0.646991427965538   0.762599206410179   0.237434513197790   1.0
C2   C   0.570854900381207   0.545721000468127   0.446274147860770   1.0
C3   C   0.753762399293770   0.501030700180749   0.639596677473946   1.0
H4   H   0.882017854056578   0.400234700901578   0.535129482685903   1.0
H5   H   0.703417441907234   0.351424318805463   0.796751769838387   1.0
H6   H   0.820072195135495   0.724501814661537   0.725429825167730   1.0
H7   H   0.260345102830378   0.690687128988813   0.451929974470204   1.0
H8   H   0.503472961760856   0.327769744618784   0.354342080375858   1.0
H9   H   0.774375554804934   0.658689857496853   0.135977426785992   1.0
H10   H   0.519893141629794   0.803635885692714   0.097598267778906   1.0
H11   H   0.713494869790168   0.982410883923009   0.330044907108792   1.0
H12   H   0.334125180746533   0.522645969367517   0.728550664032568   1.0
H13   H   0.421584117618927   0.886368848084018   0.678377175537001   1.0
F14   F   0.372386634223318   0.188886608712714   0.931171925331725   1.0
F15   F   0.141913189882835   0.664828913520516   0.075515916406495   1.0
F16   F   0.143358774892782   0.145894119923057   0.411302236333881   1.0
N17   N   0.384635059468131   0.671779578288742   0.586244020107308   1.0
Ge18   Ge   0.077359193611471   0.109960719955510   0.038728989506716   1.0




# HOIP entry ID:                    0025
# Khazana ID:                       1875
# Organic cation source:            C.C.Stoumpos et al., J. Am. Chem. Soc. 137, 6804 (2015)
# Label:                            Isopropylammonium Germanium Fluoride
# Material class:                   Hybrid organic-inorganic perovskite ( MC_ino )
# Geometry class:                   Bulk crystalline materials ( GC_cry )
# Organic cation chemical formula:  (CH3)2CHNH3
# Number of atom types:             5
# Total number of atoms:            18
# Atom types:                       C H N  Ge F
# Number of each atom:              3 10 1  1 3
# Bandgap, HSE06 (eV):              6.2756
# Bandgap, GGA (eV):                5.0006
# Kpoint for VBM:                   0.5, 0.5, 0.5
# Kpoint for CBM:                   0.5, 0.5, 0.5
# Dielectric constant, electronic:  2.7344
# Dielectric constant, ionic:       3.5508
# Dielectric constant, total:       6.2852
# Refractive index:                 1.6536
# Atomization energy (eV/atom):     -4.817
# Relative energy1 (eV/atom):       -0.2499
# Relative energy2 (eV/atom):       0.2539
# Volume of the unit cell (A^3):    137.61
# Density (g/cm^3):                 2.2895
# Tool:                             VASP
# Pseudopotential:                  PAW
# Note:                             ENCUT=400eV, k-spacing_relax=0.20/Angstrom, k-spacing_bandgap=0.15/Angstrom
# Created by:                       C.Kim, T.D.Huan, S.Krishnan, R. Ramprasad