data_1
_audit_creation_method   'Generated by vasp2cif'
_cell_length_a    4.39617291238
_cell_length_b    4.74599150485
_cell_length_c    7.69026116065
_cell_angle_alpha    112.448451317
_cell_angle_beta    92.0314250224
_cell_angle_gamma    104.684552924

_symmetry_space_group_name_H-M    'P 1'
loop_
_atom_site_label
_atom_site_type_symbol
_atom_site_fract_x
_atom_site_fract_y
_atom_site_fract_z
_atom_site_occupancy
C1   C   0.709815869568061   0.917392913213021   0.583161547147007   1.0
C2   C   0.593570192813594   0.599090990759393   0.600602497179331   1.0
C3   C   0.435630468359932   0.630316251697543   0.776849231741132   1.0
H4   H   0.601649699202319   0.786483389752988   0.906175843880597   1.0
H5   H   0.348226073460623   0.401496347318599   0.785819081092221   1.0
H6   H   0.239674529521942   0.733447772915866   0.777538056272732   1.0
H7   H   0.470776658937282   0.291080085250435   0.309652593592695   1.0
H8   H   0.789751085671277   0.497070247646697   0.599956999380261   1.0
H9   H   0.729911266881459   0.889786570228082   0.437400945144311   1.0
H10   H   0.544634389129740   0.055262371820071   0.637417071514122   1.0
H11   H   0.941433711010703   0.048359182815851   0.670649857818454   1.0
H12   H   0.243805398777269   0.153631863745986   0.437761958636273   1.0
H13   H   0.191549453906639   0.462780680912417   0.397708017025316   1.0
F14   F   0.145119269582452   0.739548918058418   0.302037240380841   1.0
F15   F   0.242011038185247   0.224773685825419   0.008532668438953   1.0
F16   F   0.764292675573223   0.156885960061956   0.197927046619334   1.0
N17   N   0.357341764704309   0.363744852509647   0.428293122104265   1.0
Ge18   Ge   0.907386454713865   0.423897915467528   0.059476222032096   1.0




# HOIP entry ID:                    0026
# Khazana ID:                       1876
# Organic cation source:            C.C.Stoumpos et al., J. Am. Chem. Soc. 137, 6804 (2015)
# Label:                            Isopropylammonium Germanium Fluoride
# Material class:                   Hybrid organic-inorganic perovskite ( MC_ino )
# Geometry class:                   Bulk crystalline materials ( GC_cry )
# Organic cation chemical formula:  (CH3)2CHNH3
# Number of atom types:             5
# Total number of atoms:            18
# Atom types:                       C H N  Ge F
# Number of each atom:              3 10 1  1 3
# Bandgap, HSE06 (eV):              6.3458
# Bandgap, GGA (eV):                5.0775
# Kpoint for VBM:                   0.5, 0.5, 0.5
# Kpoint for CBM:                   0, 0, 0.4286
# Dielectric constant, electronic:  2.6278
# Dielectric constant, ionic:       2.3234
# Dielectric constant, total:       4.9512
# Refractive index:                 1.621
# Atomization energy (eV/atom):     -4.8027
# Relative energy1 (eV/atom):       -0.2355
# Relative energy2 (eV/atom):       0.2683
# Volume of the unit cell (A^3):    141.87
# Density (g/cm^3):                 2.2207
# Tool:                             VASP
# Pseudopotential:                  PAW
# Note:                             ENCUT=400eV, k-spacing_relax=0.20/Angstrom, k-spacing_bandgap=0.15/Angstrom
# Created by:                       C.Kim, T.D.Huan, S.Krishnan, R. Ramprasad