data_1
_audit_creation_method   'Generated by vasp2cif'
_cell_length_a    5.98892842798
_cell_length_b    4.91436248974
_cell_length_c    4.68174488675
_cell_angle_alpha    95.9804528926
_cell_angle_beta    84.9050740957
_cell_angle_gamma    88.896531552

_symmetry_space_group_name_H-M    'P 1'
loop_
_atom_site_label
_atom_site_type_symbol
_atom_site_fract_x
_atom_site_fract_y
_atom_site_fract_z
_atom_site_occupancy
C1   C   0.646091152739296   0.239212595073887   0.369922623761109   1.0
C2   C   0.627108470514467   0.940055269317489   0.416929958068318   1.0
C3   C   0.763752740833403   0.878071810702553   0.661585701429705   1.0
H4   H   0.940381211192590   0.884489140209069   0.585522602002336   1.0
H5   H   0.729426742789342   0.679610903799954   0.734315454942111   1.0
H6   H   0.730342257970403   0.034779747807031   0.843710137132042   1.0
H7   H   0.289490556524130   0.969263598189543   0.336825113223733   1.0
H8   H   0.678695774766161   0.805296098276403   0.222226771327470   1.0
H9   H   0.821816307777018   0.289928866521328   0.358617295717677   1.0
H10   H   0.571858282441410   0.290040093183550   0.178096564425383   1.0
H11   H   0.561724183321255   0.361116519072667   0.557538752557432   1.0
H12   H   0.349360817663731   0.681151554948402   0.478392322612057   1.0
H13   H   0.322713219702022   0.974706416614754   0.689558339104814   1.0
F14   F   0.394746090071100   0.567067615537717   0.972444950937320   1.0
F15   F   0.136742663602177   0.401235425166034   0.561363917868819   1.0
F16   F   0.168697462722436   0.086463797592406   0.017015901786335   1.0
N17   N   0.380682734711441   0.886226699283610   0.485657394298807   1.0
Ge18   Ge   0.089269330657541   0.470603848703614   0.981046198804496   1.0




# HOIP entry ID:                    0027
# Khazana ID:                       1877
# Organic cation source:            C.C.Stoumpos et al., J. Am. Chem. Soc. 137, 6804 (2015)
# Label:                            Isopropylammonium Germanium Fluoride
# Material class:                   Hybrid organic-inorganic perovskite ( MC_ino )
# Geometry class:                   Bulk crystalline materials ( GC_cry )
# Organic cation chemical formula:  (CH3)2CHNH3
# Number of atom types:             5
# Total number of atoms:            18
# Atom types:                       C H N  Ge F
# Number of each atom:              3 10 1  1 3
# Bandgap, HSE06 (eV):              6.4165
# Bandgap, GGA (eV):                5.1611
# Kpoint for VBM:                   0, 0.5, 0.5
# Kpoint for CBM:                   0.5, 0.5, 0.5
# Dielectric constant, electronic:  2.7189
# Dielectric constant, ionic:       1.7644
# Dielectric constant, total:       4.4833
# Refractive index:                 1.6489
# Atomization energy (eV/atom):     -4.8181
# Relative energy1 (eV/atom):       -0.251
# Relative energy2 (eV/atom):       0.2528
# Volume of the unit cell (A^3):    136.44
# Density (g/cm^3):                 2.3091
# Tool:                             VASP
# Pseudopotential:                  PAW
# Note:                             ENCUT=400eV, k-spacing_relax=0.20/Angstrom, k-spacing_bandgap=0.15/Angstrom
# Created by:                       C.Kim, T.D.Huan, S.Krishnan, R. Ramprasad