data_1
_audit_creation_method   'Generated by vasp2cif'
_cell_length_a    5.70141393064
_cell_length_b    3.96568125132
_cell_length_c    7.00489444265
_cell_angle_alpha    101.581852308
_cell_angle_beta    85.0301081475
_cell_angle_gamma    116.894883636

_symmetry_space_group_name_H-M    'P 1'
loop_
_atom_site_label
_atom_site_type_symbol
_atom_site_fract_x
_atom_site_fract_y
_atom_site_fract_z
_atom_site_occupancy
C1   C   0.279459997676646   0.511487539423278   0.273152039772462   1.0
C2   C   0.449465639883130   0.431388524965442   0.395991901673170   1.0
C3   C   0.669974032529161   0.390658303393145   0.270628105786557   1.0
H4   H   0.598177395361873   0.237936993312587   0.124355963036898   1.0
H5   H   0.760758039927175   0.246029910841344   0.329615229889846   1.0
H6   H   0.821811536932927   0.677907917761566   0.257051163333280   1.0
H7   H   0.445231931162020   0.867463554702269   0.631804711581033   1.0
H8   H   0.325894210617896   0.178289636788371   0.458209818993453   1.0
H9   H   0.395770179294907   0.677339731268866   0.163830747847335   1.0
H10   H   0.134919559323293   0.237431194094960   0.195513920963251   1.0
H11   H   0.170381157263051   0.648483867692264   0.361461393833451   1.0
H12   H   0.597235896069670   0.632198461933136   0.685804069302733   1.0
H13   H   0.744249069934455   0.967113015888508   0.552083167506275   1.0
F14   F   0.957926984705374   0.469503973906342   0.629490163311111   1.0
F15   F   0.799941607692645   0.894192294870656   0.922770956100933   1.0
F16   F   0.324451263908898   0.159782004812989   0.797520739152120   1.0
N17   N   0.565939743524552   0.741604094785856   0.574139736253784   1.0
Ge18   Ge   0.059951754192298   0.703108979558358   0.896666171662027   1.0




# HOIP entry ID:                    0028
# Khazana ID:                       1878
# Organic cation source:            C.C.Stoumpos et al., J. Am. Chem. Soc. 137, 6804 (2015)
# Label:                            Isopropylammonium Germanium Fluoride
# Material class:                   Hybrid organic-inorganic perovskite ( MC_ino )
# Geometry class:                   Bulk crystalline materials ( GC_cry )
# Organic cation chemical formula:  (CH3)2CHNH3
# Number of atom types:             5
# Total number of atoms:            18
# Atom types:                       C H N  Ge F
# Number of each atom:              3 10 1  1 3
# Bandgap, HSE06 (eV):              6.1201
# Bandgap, GGA (eV):                4.8186
# Kpoint for VBM:                   0.5, 0.5, 0
# Kpoint for CBM:                   0.5, 0, 0
# Dielectric constant, electronic:  2.6817
# Dielectric constant, ionic:       2.0633
# Dielectric constant, total:       4.745
# Refractive index:                 1.6376
# Atomization energy (eV/atom):     -4.7983
# Relative energy1 (eV/atom):       -0.2312
# Relative energy2 (eV/atom):       0.2726
# Volume of the unit cell (A^3):    138.37
# Density (g/cm^3):                 2.2769
# Tool:                             VASP
# Pseudopotential:                  PAW
# Note:                             ENCUT=400eV, k-spacing_relax=0.20/Angstrom, k-spacing_bandgap=0.15/Angstrom
# Created by:                       C.Kim, T.D.Huan, S.Krishnan, R. Ramprasad