data_1
_audit_creation_method   'Generated by vasp2cif'
_cell_length_a    7.47792409112
_cell_length_b    3.82030072667
_cell_length_c    5.14030241213
_cell_angle_alpha    72.5804360422
_cell_angle_beta    90.9116193611
_cell_angle_gamma    105.032361875

_symmetry_space_group_name_H-M    'P 1'
loop_
_atom_site_label
_atom_site_type_symbol
_atom_site_fract_x
_atom_site_fract_y
_atom_site_fract_z
_atom_site_occupancy
C1   C   0.554696350300773   0.008458365050522   0.230474633796931   1.0
C2   C   0.541878837760294   0.999310822181847   0.527696962322430   1.0
C3   C   0.716867609142646   0.258551014310001   0.594535387706571   1.0
H4   H   0.823317104869332   0.104399744473348   0.638054050832523   1.0
H5   H   0.696439282820229   0.345000253237870   0.771433486490167   1.0
H6   H   0.772352808510199   0.515861174506398   0.425208645599774   1.0
H7   H   0.345661501444347   0.133518871536403   0.763968617304243   1.0
H8   H   0.523080558224237   0.715075820398638   0.668058899273547   1.0
H9   H   0.428507245059130   0.845428151078814   0.169621526694336   1.0
H10   H   0.580469614563285   0.303594403786960   0.103150399981395   1.0
H11   H   0.670395938958663   0.903344928378729   0.192527501789613   1.0
H12   H   0.345785551852202   0.332896451583515   0.431381562644134   1.0
H13   H   0.250884342188819   0.875713675816861   0.564073234462427   1.0
F14   F   0.282098764814009   0.390446610666146   0.975893787900240   1.0
F15   F   0.005190885980596   0.754944114435993   0.844744770007573   1.0
F16   F   0.132134668534796   0.568291661636820   0.370224479843287   1.0
N17   N   0.362804844803257   0.094755048986990   0.576631915059487   1.0
Ge18   Ge   0.028094090173255   0.291428887934103   0.109750138291240   1.0




# HOIP entry ID:                    0029
# Khazana ID:                       1879
# Organic cation source:            C.C.Stoumpos et al., J. Am. Chem. Soc. 137, 6804 (2015)
# Label:                            Isopropylammonium Germanium Fluoride
# Material class:                   Hybrid organic-inorganic perovskite ( MC_ino )
# Geometry class:                   Bulk crystalline materials ( GC_cry )
# Organic cation chemical formula:  (CH3)2CHNH3
# Number of atom types:             5
# Total number of atoms:            18
# Atom types:                       C H N  Ge F
# Number of each atom:              3 10 1  1 3
# Bandgap, HSE06 (eV):              6.0552
# Bandgap, GGA (eV):                4.7697
# Kpoint for VBM:                   0, 0.5, 0
# Kpoint for CBM:                   0, 0, 0.4444
# Dielectric constant, electronic:  2.7351
# Dielectric constant, ionic:       2.1391
# Dielectric constant, total:       4.8742
# Refractive index:                 1.6538
# Atomization energy (eV/atom):     -4.7991
# Relative energy1 (eV/atom):       -0.2319
# Relative energy2 (eV/atom):       0.2719
# Volume of the unit cell (A^3):    135.01
# Density (g/cm^3):                 2.3336
# Tool:                             VASP
# Pseudopotential:                  PAW
# Note:                             ENCUT=400eV, k-spacing_relax=0.20/Angstrom, k-spacing_bandgap=0.15/Angstrom
# Created by:                       C.Kim, T.D.Huan, S.Krishnan, R. Ramprasad