data_1
_audit_creation_method   'Generated by vasp2cif'
_cell_length_a    5.89327145071
_cell_length_b    4.31476778877
_cell_length_c    5.48796131848
_cell_angle_alpha    88.9801969586
_cell_angle_beta    87.5251052825
_cell_angle_gamma    94.3920333677

_symmetry_space_group_name_H-M    'P 1'
loop_
_atom_site_label
_atom_site_type_symbol
_atom_site_fract_x
_atom_site_fract_y
_atom_site_fract_z
_atom_site_occupancy
C1   C   0.431009965638900   0.617193580403978   0.778562137988530   1.0
C2   C   0.445992638328498   0.497285495007347   0.521861526241516   1.0
C3   C   0.283000131230409   0.646200440510817   0.355984509483918   1.0
H4   H   0.122347671595385   0.666850916062451   0.457037417347983   1.0
H5   H   0.251915746756197   0.505343611135451   0.197788717706693   1.0
H6   H   0.350860211355652   0.877621126617747   0.293512748910942   1.0
H7   H   0.708203388011640   0.518290189071941   0.241296150921229   1.0
H8   H   0.412293874400241   0.245036246253022   0.523586600972138   1.0
H9   H   0.533748988190183   0.490730330492923   0.899358403342816   1.0
H10   H   0.487271024902242   0.863980404589491   0.783957583008544   1.0
H11   H   0.254499926403177   0.588090989325551   0.842371953432909   1.0
H12   H   0.748407255956437   0.785638083008912   0.457625945576254   1.0
H13   H   0.791054844394417   0.412478298910912   0.513958715479447   1.0
F14   F   0.683325200042859   0.082439622042607   0.104037717565909   1.0
F15   F   0.909676438216081   0.612971668677964   0.940216844357465   1.0
F16   F   0.912327642970695   0.095987268219851   0.622226876149021   1.0
N17   N   0.689969037849544   0.559927956917853   0.424427303732095   1.0
Ge18   Ge   0.986176013757401   0.064063772750927   0.966678847782624   1.0




# HOIP entry ID:                    0030
# Khazana ID:                       1880
# Organic cation source:            C.C.Stoumpos et al., J. Am. Chem. Soc. 137, 6804 (2015)
# Label:                            Isopropylammonium Germanium Fluoride
# Material class:                   Hybrid organic-inorganic perovskite ( MC_ino )
# Geometry class:                   Bulk crystalline materials ( GC_cry )
# Organic cation chemical formula:  (CH3)2CHNH3
# Number of atom types:             5
# Total number of atoms:            18
# Atom types:                       C H N  Ge F
# Number of each atom:              3 10 1  1 3
# Bandgap, HSE06 (eV):              6.4261
# Bandgap, GGA (eV):                5.1078
# Kpoint for VBM:                   0.5, 0.5, 0.5
# Kpoint for CBM:                   0.0714, 0.5, 0.5
# Dielectric constant, electronic:  2.6942
# Dielectric constant, ionic:       2.6649
# Dielectric constant, total:       5.3591
# Refractive index:                 1.6414
# Atomization energy (eV/atom):     -4.8164
# Relative energy1 (eV/atom):       -0.2493
# Relative energy2 (eV/atom):       0.2545
# Volume of the unit cell (A^3):    138.98
# Density (g/cm^3):                 2.2669
# Tool:                             VASP
# Pseudopotential:                  PAW
# Note:                             ENCUT=400eV, k-spacing_relax=0.20/Angstrom, k-spacing_bandgap=0.15/Angstrom
# Created by:                       C.Kim, T.D.Huan, S.Krishnan, R. Ramprasad