data_1
_audit_creation_method   'Generated by vasp2cif'
_cell_length_a    5.4899764624
_cell_length_b    4.79093577973
_cell_length_c    4.64600390316
_cell_angle_alpha    83.0958388145
_cell_angle_beta    103.673276521
_cell_angle_gamma    99.0516062031

_symmetry_space_group_name_H-M    'P 1'
loop_
_atom_site_label
_atom_site_type_symbol
_atom_site_fract_x
_atom_site_fract_y
_atom_site_fract_z
_atom_site_occupancy
F1   F   0.590397592905028   0.923448892265334   0.916000021009872   1.0
F2   F   0.892117578314597   0.937186291246604   0.461349247436274   1.0
F3   F   0.963058658916076   0.370590461799075   0.013913603257663   1.0
H4   H   0.324252860680694   0.663547549881436   0.209692852982663   1.0
H5   H   0.671189936144330   0.430387149879301   0.196869857143149   1.0
H6   H   0.564890436036599   0.761627187670008   0.484826606576505   1.0
H7   H   0.110858337292392   0.347539448335347   0.526108533364081   1.0
H8   H   0.380160208735973   0.395629904009439   0.821854536975522   1.0
H9   H   0.195807781011190   0.679515541391559   0.681233604163239   1.0
H10   H   0.430481708431351   0.178022430446809   0.309039918970207   1.0
H11   H   0.695641423186714   0.315909341279628   0.579436698384797   1.0
C12   C   0.265375203154243   0.497943189081560   0.628132719899860   1.0
C13   C   0.568184412013153   0.362396073295372   0.369744750477331   1.0
Ge14   Ge   0.947388434219143   0.963666887069380   0.053280792043040   1.0
N15   N   0.430588719496150   0.594379459938615   0.411047150911493   1.0




# HOIP entry ID:                    0031
# Khazana ID:                       1881
# Organic cation source:            B.Saparov et al., Chem. Rev. 116, 4558 (2016)
# Label:                            Dimethylammonium Germanium Fluoride
# Material class:                   Hybrid organic-inorganic perovskite ( MC_ino )
# Geometry class:                   Bulk crystalline materials ( GC_cry )
# Organic cation chemical formula:  (CH3)2NH2
# Number of atom types:             5
# Total number of atoms:            15
# Atom types:                       C H N  Ge F
# Number of each atom:              2 8 1  1 3
# Bandgap, HSE06 (eV):              5.597
# Bandgap, GGA (eV):                4.3753
# Kpoint for VBM:                   0.5, 0.5, 0.5
# Kpoint for CBM:                   -0.4286, -0.4375, 0.4444
# Dielectric constant, electronic:  2.7629
# Dielectric constant, ionic:       2.382
# Dielectric constant, total:       5.1449
# Refractive index:                 1.6622
# Atomization energy (eV/atom):     -4.7289
# Relative energy1 (eV/atom):       -0.2278
# Relative energy2 (eV/atom):       0.3768
# Volume of the unit cell (A^3):    116.82
# Density (g/cm^3):                 2.4975
# Tool:                             VASP
# Pseudopotential:                  PAW
# Note:                             ENCUT=400eV, k-spacing_relax=0.20/Angstrom, k-spacing_bandgap=0.15/Angstrom
# Created by:                       C.Kim, T.D.Huan, S.Krishnan, R. Ramprasad