data_1
_audit_creation_method   'Generated by vasp2cif'
_cell_length_a    5.41979793346
_cell_length_b    4.78795583055
_cell_length_c    4.82286830656
_cell_angle_alpha    76.7865068722
_cell_angle_beta    105.415353037
_cell_angle_gamma    97.8993712286

_symmetry_space_group_name_H-M    'P 1'
loop_
_atom_site_label
_atom_site_type_symbol
_atom_site_fract_x
_atom_site_fract_y
_atom_site_fract_z
_atom_site_occupancy
F1   F   0.589343368908452   0.914642868264608   0.964259843654162   1.0
F2   F   0.952736674301249   0.959651665892572   0.456872516084616   1.0
F3   F   0.926217430640150   0.393940292385402   0.955943822203196   1.0
H4   H   0.512097638726942   0.757151751359004   0.347172438293143   1.0
H5   H   0.721034210191405   0.387448653796127   0.268415522839526   1.0
H6   H   0.679185163624950   0.578353003713005   0.664834585787354   1.0
H7   H   0.118342001721516   0.476052287528482   0.434553032876686   1.0
H8   H   0.306982057052778   0.280065777433556   0.756411428466990   1.0
H9   H   0.269043707052745   0.653358869698195   0.731695665208186   1.0
H10   H   0.382870698398868   0.332547376813885   0.161487447295016   1.0
H11   H   0.554748542855954   0.135700280015392   0.503315617690113   1.0
C12   C   0.283947622408242   0.491095104725446   0.615821234283310   1.0
C13   C   0.547561229899607   0.336978953932075   0.345118111555188   1.0
Ge14   Ge   0.959272445106159   0.979455013019873   0.055527290761397   1.0
N15   N   0.517417368920832   0.565058615461624   0.495943305457452   1.0




# HOIP entry ID:                    0032
# Khazana ID:                       1882
# Organic cation source:            B.Saparov et al., Chem. Rev. 116, 4558 (2016)
# Label:                            Dimethylammonium Germanium Fluoride
# Material class:                   Hybrid organic-inorganic perovskite ( MC_ino )
# Geometry class:                   Bulk crystalline materials ( GC_cry )
# Organic cation chemical formula:  (CH3)2NH2
# Number of atom types:             5
# Total number of atoms:            15
# Atom types:                       C H N  Ge F
# Number of each atom:              2 8 1  1 3
# Bandgap, HSE06 (eV):              5.5879
# Bandgap, GGA (eV):                4.3686
# Kpoint for VBM:                   0.5, 0.5, 0.5
# Kpoint for CBM:                   0.5, 0.375, 0.3889
# Dielectric constant, electronic:  2.7319
# Dielectric constant, ionic:       2.1916
# Dielectric constant, total:       4.9235
# Refractive index:                 1.6529
# Atomization energy (eV/atom):     -4.7289
# Relative energy1 (eV/atom):       -0.2278
# Relative energy2 (eV/atom):       0.3768
# Volume of the unit cell (A^3):    117.06
# Density (g/cm^3):                 2.4924
# Tool:                             VASP
# Pseudopotential:                  PAW
# Note:                             ENCUT=400eV, k-spacing_relax=0.20/Angstrom, k-spacing_bandgap=0.15/Angstrom
# Created by:                       C.Kim, T.D.Huan, S.Krishnan, R. Ramprasad