data_1
_audit_creation_method   'Generated by vasp2cif'
_cell_length_a    4.83284055789
_cell_length_b    3.56398987268
_cell_length_c    7.08618919224
_cell_angle_alpha    93.769226125
_cell_angle_beta    78.3828685828
_cell_angle_gamma    97.6731744672

_symmetry_space_group_name_H-M    'P 1'
loop_
_atom_site_label
_atom_site_type_symbol
_atom_site_fract_x
_atom_site_fract_y
_atom_site_fract_z
_atom_site_occupancy
F1   F   0.077358021641459   0.153686095192917   0.165006039459549   1.0
F2   F   0.443165558975629   0.677985137907598   0.929779112541837   1.0
F3   F   0.137769255533030   0.120861597755962   0.741997617427032   1.0
H4   H   0.852710942275770   0.350140439291742   0.425233391976697   1.0
H5   H   0.332276015753756   0.418958184920925   0.576543058934831   1.0
H6   H   0.439119873627696   0.852746877576827   0.628623695153784   1.0
H7   H   0.475405497929863   0.479259984639619   0.238986039152877   1.0
H8   H   0.285367043966168   0.861592973328555   0.332795102580050   1.0
H9   H   0.664212218749114   0.930804929710604   0.273330608590740   1.0
H10   H   0.729567581179637   0.363865159249180   0.682424204217497   1.0
H11   H   0.913912877691587   0.773020357557236   0.567206966950359   1.0
C12   C   0.478695193459551   0.736014520066469   0.329181360907846   1.0
C13   C   0.768728369346505   0.519137186340025   0.551387393355071   1.0
Ge14   Ge   0.045449404037356   0.516875419634246   0.972433416521923   1.0
N15   N   0.491022145832908   0.636451136828192   0.529121992229847   1.0




# HOIP entry ID:                    0034
# Khazana ID:                       1884
# Organic cation source:            B.Saparov et al., Chem. Rev. 116, 4558 (2016)
# Label:                            Dimethylammonium Germanium Fluoride
# Material class:                   Hybrid organic-inorganic perovskite ( MC_ino )
# Geometry class:                   Bulk crystalline materials ( GC_cry )
# Organic cation chemical formula:  (CH3)2NH2
# Number of atom types:             5
# Total number of atoms:            15
# Atom types:                       C H N  Ge F
# Number of each atom:              2 8 1  1 3
# Bandgap, HSE06 (eV):              5.8405
# Bandgap, GGA (eV):                4.5654
# Kpoint for VBM:                   0.5, 0.5, 0.0526
# Kpoint for CBM:                   0.0625, 0, 0.4167
# Dielectric constant, electronic:  2.6995
# Dielectric constant, ionic:       2.9898
# Dielectric constant, total:       5.6892
# Refractive index:                 1.643
# Atomization energy (eV/atom):     -4.7111
# Relative energy1 (eV/atom):       -0.21
# Relative energy2 (eV/atom):       0.3946
# Volume of the unit cell (A^3):    118.39
# Density (g/cm^3):                 2.4644
# Tool:                             VASP
# Pseudopotential:                  PAW
# Note:                             ENCUT=400eV, k-spacing_relax=0.20/Angstrom, k-spacing_bandgap=0.15/Angstrom
# Created by:                       C.Kim, T.D.Huan, S.Krishnan, R. Ramprasad