data_1
_audit_creation_method   'Generated by vasp2cif'
_cell_length_a    4.87836323517
_cell_length_b    3.65616388435
_cell_length_c    6.87088292711
_cell_angle_alpha    91.3940921734
_cell_angle_beta    79.4266600821
_cell_angle_gamma    98.8935919995

_symmetry_space_group_name_H-M    'P 1'
loop_
_atom_site_label
_atom_site_type_symbol
_atom_site_fract_x
_atom_site_fract_y
_atom_site_fract_z
_atom_site_occupancy
F1   F   0.063458672216178   0.114908539158229   0.155929576534298   1.0
F2   F   0.458277817378367   0.777392766151273   0.914100141062718   1.0
F3   F   0.114257945168987   0.062073771663066   0.721574273336898   1.0
H4   H   0.815716403405261   0.266466273893180   0.422387282578576   1.0
H5   H   0.320675108824275   0.374111368621889   0.579420489679769   1.0
H6   H   0.459289985416554   0.794706610919540   0.620365289771065   1.0
H7   H   0.461467439671097   0.438660892568628   0.226086317700741   1.0
H8   H   0.269581048560560   0.795395626705329   0.324941722369552   1.0
H9   H   0.641555491276897   0.890120831821015   0.259296071187151   1.0
H10   H   0.719050207129726   0.309876573284896   0.686795958448741   1.0
H11   H   0.915239682900427   0.688456092392649   0.541520709631428   1.0
C12   C   0.464131892862007   0.683626848610579   0.318078934475238   1.0
C13   C   0.754498606615122   0.448024780914388   0.544257915986805   1.0
Ge14   Ge   0.050381771266998   0.717057779906611   0.959580497679553   1.0
N15   N   0.486017927307536   0.580131243388671   0.523034819557495   1.0




# HOIP entry ID:                    0035
# Khazana ID:                       1885
# Organic cation source:            B.Saparov et al., Chem. Rev. 116, 4558 (2016)
# Label:                            Dimethylammonium Germanium Fluoride
# Material class:                   Hybrid organic-inorganic perovskite ( MC_ino )
# Geometry class:                   Bulk crystalline materials ( GC_cry )
# Organic cation chemical formula:  (CH3)2NH2
# Number of atom types:             5
# Total number of atoms:            15
# Atom types:                       C H N  Ge F
# Number of each atom:              2 8 1  1 3
# Bandgap, HSE06 (eV):              5.9342
# Bandgap, GGA (eV):                4.6568
# Kpoint for VBM:                   0.5, 0.5, 0.4474
# Kpoint for CBM:                   -0.4375, 0, 0.25
# Dielectric constant, electronic:  2.6849
# Dielectric constant, ionic:       2.3436
# Dielectric constant, total:       5.0285
# Refractive index:                 1.6386
# Atomization energy (eV/atom):     -4.717
# Relative energy1 (eV/atom):       -0.2159
# Relative energy2 (eV/atom):       0.3887
# Volume of the unit cell (A^3):    119.02
# Density (g/cm^3):                 2.4514
# Tool:                             VASP
# Pseudopotential:                  PAW
# Note:                             ENCUT=400eV, k-spacing_relax=0.20/Angstrom, k-spacing_bandgap=0.15/Angstrom
# Created by:                       C.Kim, T.D.Huan, S.Krishnan, R. Ramprasad