data_1
_audit_creation_method   'Generated by vasp2cif'
_cell_length_a    4.89808672384
_cell_length_b    5.26499597885
_cell_length_c    5.20367605108
_cell_angle_alpha    91.2454097774
_cell_angle_beta    106.046620304
_cell_angle_gamma    106.107953242

_symmetry_space_group_name_H-M    'P 1'
loop_
_atom_site_label
_atom_site_type_symbol
_atom_site_fract_x
_atom_site_fract_y
_atom_site_fract_z
_atom_site_occupancy
C1   C   0.672892446692913   0.506031162557697   0.518252375033313   1.0
C2   C   0.498825883966319   0.630776625702858   0.645754643454794   1.0
H3   H   0.288484365751820   0.595856830359708   0.940093422289017   1.0
H4   H   0.282784005391122   0.917439629283500   0.613314268706581   1.0
H5   H   0.829506778266072   0.434103977118966   0.666726516068550   1.0
H6   H   0.790219354773193   0.641187552228409   0.403890174654123   1.0
H7   H   0.521435121485816   0.335421971986143   0.380716889064203   1.0
H8   H   0.470900098612354   0.903368793009449   0.379304175228782   1.0
H9   H   0.479023589873385   0.367827536624013   0.923301197435045   1.0
F10   F   0.006736708400332   0.101519612694574   0.484487491142708   1.0
F11   F   0.008604898254745   0.462058590915277   0.118485037154549   1.0
F12   F   0.503147878568015   0.054264053902180   0.068873541459006   1.0
N13   N   0.428169431547140   0.534168690957003   0.858335774223420   1.0
N14   N   0.421212851855628   0.837522415776860   0.547552210927385   1.0
Ge15   Ge   0.925126586561106   0.082502556883277   0.099922283158499   1.0




# HOIP entry ID:                    0037
# Khazana ID:                       1887
# Organic cation source:            C.C.Stoumpos et al., J. Am. Chem. Soc. 137, 6804 (2015)
# Label:                            Acetamidinium Germanium Fluoride
# Material class:                   Hybrid organic-inorganic perovskite ( MC_ino )
# Geometry class:                   Bulk crystalline materials ( GC_cry )
# Organic cation chemical formula:  CH3C(NH2)2
# Number of atom types:             5
# Total number of atoms:            15
# Atom types:                       C H N  Ge F
# Number of each atom:              2 7 2  1 3
# Bandgap, HSE06 (eV):              5.4822
# Bandgap, GGA (eV):                4.1616
# Kpoint for VBM:                   0.5, 0.5, 0.5
# Kpoint for CBM:                   0.5, 0.5, 0
# Dielectric constant, electronic:  2.8234
# Dielectric constant, ionic:       2.2606
# Dielectric constant, total:       5.084
# Refractive index:                 1.6803
# Atomization energy (eV/atom):     -5.0401
# Relative energy1 (eV/atom):       -0.1129
# Relative energy2 (eV/atom):       0.4917
# Volume of the unit cell (A^3):    123.2
# Density (g/cm^3):                 2.5434
# Tool:                             VASP
# Pseudopotential:                  PAW
# Note:                             ENCUT=400eV, k-spacing_relax=0.20/Angstrom, k-spacing_bandgap=0.15/Angstrom
# Created by:                       C.Kim, T.D.Huan, S.Krishnan, R. Ramprasad