data_1
_audit_creation_method   'Generated by vasp2cif'
_cell_length_a    4.74515507446
_cell_length_b    5.5340422381
_cell_length_c    4.85314746558
_cell_angle_alpha    79.5351960272
_cell_angle_beta    100.374416519
_cell_angle_gamma    87.2488887487

_symmetry_space_group_name_H-M    'P 1'
loop_
_atom_site_label
_atom_site_type_symbol
_atom_site_fract_x
_atom_site_fract_y
_atom_site_fract_z
_atom_site_occupancy
C1   C   0.611371482733471   0.477851084778143   0.374601629374344   1.0
C2   C   0.494729314827999   0.614104938972999   0.571374158583822   1.0
H3   H   0.186359747707173   0.619771123950939   0.814825517412338   1.0
H4   H   0.555165432139026   0.893687576615555   0.794414630941651   1.0
H5   H   0.753335945951196   0.586614332600712   0.258667158635446   1.0
H6   H   0.438516459182939   0.424594616168911   0.225560161304377   1.0
H7   H   0.730083108645796   0.308859935452020   0.499877385311571   1.0
H8   H   0.788171259511423   0.868413805662962   0.562249882480608   1.0
H9   H   0.191553784887335   0.377625792768099   0.622962416238747   1.0
F10   F   0.090694754491847   0.068949546412606   0.506641937798757   1.0
F11   F   0.105525726865935   0.786534981532998   0.084614285114075   1.0
F12   F   0.622593799005264   0.071864874640501   0.068916242461034   1.0
N13   N   0.269843414417104   0.533876774061501   0.675051074019022   1.0
N14   N   0.622336888187715   0.802377353493112   0.650233073334119   1.0
Ge15   Ge   0.028418881445727   0.125123262888917   0.089870446990126   1.0




# HOIP entry ID:                    0038
# Khazana ID:                       1888
# Organic cation source:            C.C.Stoumpos et al., J. Am. Chem. Soc. 137, 6804 (2015)
# Label:                            Acetamidinium Germanium Fluoride
# Material class:                   Hybrid organic-inorganic perovskite ( MC_ino )
# Geometry class:                   Bulk crystalline materials ( GC_cry )
# Organic cation chemical formula:  CH3C(NH2)2
# Number of atom types:             5
# Total number of atoms:            15
# Atom types:                       C H N  Ge F
# Number of each atom:              2 7 2  1 3
# Bandgap, HSE06 (eV):              5.8648
# Bandgap, GGA (eV):                4.488
# Kpoint for VBM:                   0.5, 0.0714, 0.5
# Kpoint for CBM:                   -0.375, 0.2143, 0.5
# Dielectric constant, electronic:  2.8381
# Dielectric constant, ionic:       2.392
# Dielectric constant, total:       5.2302
# Refractive index:                 1.6847
# Atomization energy (eV/atom):     -5.0422
# Relative energy1 (eV/atom):       -0.115
# Relative energy2 (eV/atom):       0.4896
# Volume of the unit cell (A^3):    122.84
# Density (g/cm^3):                 2.5508
# Tool:                             VASP
# Pseudopotential:                  PAW
# Note:                             ENCUT=400eV, k-spacing_relax=0.20/Angstrom, k-spacing_bandgap=0.15/Angstrom
# Created by:                       C.Kim, T.D.Huan, S.Krishnan, R. Ramprasad