data_1
_audit_creation_method   'Generated by vasp2cif'
_cell_length_a    4.9517574307
_cell_length_b    3.46232726054
_cell_length_c    7.27843623805
_cell_angle_alpha    87.3717885392
_cell_angle_beta    93.5738907291
_cell_angle_gamma    99.188902323

_symmetry_space_group_name_H-M    'P 1'
loop_
_atom_site_label
_atom_site_type_symbol
_atom_site_fract_x
_atom_site_fract_y
_atom_site_fract_z
_atom_site_occupancy
C1   C   0.396598075924203   0.889412649388881   0.636230109332011   1.0
C2   C   0.552677116057794   0.831278841506361   0.474010869937253   1.0
H3   H   0.299225515253937   0.088885866960489   0.294514449119582   1.0
H4   H   0.559032068532922   0.899183310755078   0.193678928003315   1.0
H5   H   0.312273125542902   0.604214838195055   0.694397116257797   1.0
H6   H   0.528825635883173   0.039266936695611   0.744360021799274   1.0
H7   H   0.228673547059856   0.046648432540266   0.595202349181719   1.0
H8   H   0.865822811348480   0.571982122462899   0.389072356360785   1.0
H9   H   0.825343206304311   0.544530971678597   0.623693444852599   1.0
F10   F   0.626882691110850   0.586580570778992   0.010906345318226   1.0
F11   F   0.998472133837510   0.259550578264999   0.226668253692289   1.0
F12   F   0.950753355765087   0.247716997876644   0.809210863170385   1.0
N13   N   0.463086411792723   0.942857018161241   0.309149175392200   1.0
N14   N   0.774875836490850   0.661816324545640   0.497956753151563   1.0
Ge15   Ge   0.018708469095415   0.640374540189178   0.004378964431062   1.0




# HOIP entry ID:                    0039
# Khazana ID:                       1889
# Organic cation source:            C.C.Stoumpos et al., J. Am. Chem. Soc. 137, 6804 (2015)
# Label:                            Acetamidinium Germanium Fluoride
# Material class:                   Hybrid organic-inorganic perovskite ( MC_ino )
# Geometry class:                   Bulk crystalline materials ( GC_cry )
# Organic cation chemical formula:  CH3C(NH2)2
# Number of atom types:             5
# Total number of atoms:            15
# Atom types:                       C H N  Ge F
# Number of each atom:              2 7 2  1 3
# Bandgap, HSE06 (eV):              5.2585
# Bandgap, GGA (eV):                3.9446
# Kpoint for VBM:                   0.5, 0.5, 0.5
# Kpoint for CBM:                   0.5, 0, 0.5
# Dielectric constant, electronic:  2.8493
# Dielectric constant, ionic:       2.8448
# Dielectric constant, total:       5.6941
# Refractive index:                 1.688
# Atomization energy (eV/atom):     -5.0382
# Relative energy1 (eV/atom):       -0.111
# Relative energy2 (eV/atom):       0.4936
# Volume of the unit cell (A^3):    122.86
# Density (g/cm^3):                 2.5504
# Tool:                             VASP
# Pseudopotential:                  PAW
# Note:                             ENCUT=400eV, k-spacing_relax=0.20/Angstrom, k-spacing_bandgap=0.15/Angstrom
# Created by:                       C.Kim, T.D.Huan, S.Krishnan, R. Ramprasad