data_1
_audit_creation_method   'Generated by vasp2cif'
_cell_length_a    7.4607190223
_cell_length_b    3.52482647364
_cell_length_c    4.7362405652
_cell_angle_alpha    89.4077940499
_cell_angle_beta    90.0492553538
_cell_angle_gamma    86.8221719349

_symmetry_space_group_name_H-M    'P 1'
loop_
_atom_site_label
_atom_site_type_symbol
_atom_site_fract_x
_atom_site_fract_y
_atom_site_fract_z
_atom_site_occupancy
C1   C   0.639594110498841   0.899306890885825   0.571215758790871   1.0
C2   C   0.486151071465066   0.726204953165542   0.428682585319173   1.0
H3   H   0.306473004163067   0.873068488201213   0.735712842259552   1.0
H4   H   0.229918205792124   0.545815116151196   0.498122853322080   1.0
H5   H   0.736135161843244   0.673900786868700   0.642924471399397   1.0
H6   H   0.709721733219112   0.081886355651115   0.428545993575966   1.0
H7   H   0.594626443653205   0.059890859716148   0.754286453310662   1.0
H8   H   0.408803386465607   0.436248450674533   0.085098112961944   1.0
H9   H   0.637389706578524   0.532229506859842   0.099029628850580   1.0
F10   F   0.027660087142216   0.267153637330551   0.469409502854312   1.0
F11   F   0.226764770520688   0.220965939733986   0.982228166262558   1.0
F12   F   0.831566946584843   0.324695172261812   0.980706608793334   1.0
N13   N   0.331030135081051   0.710987135520625   0.561513937054613   1.0
N14   N   0.510090144459703   0.578217487092644   0.175204919390602   1.0
Ge15   Ge   0.015335092532787   0.966119219886274   0.129428165854357   1.0




# HOIP entry ID:                    0041
# Khazana ID:                       1891
# Organic cation source:            C.C.Stoumpos et al., J. Am. Chem. Soc. 137, 6804 (2015)
# Label:                            Acetamidinium Germanium Fluoride
# Material class:                   Hybrid organic-inorganic perovskite ( MC_ino )
# Geometry class:                   Bulk crystalline materials ( GC_cry )
# Organic cation chemical formula:  CH3C(NH2)2
# Number of atom types:             5
# Total number of atoms:            15
# Atom types:                       C H N  Ge F
# Number of each atom:              2 7 2  1 3
# Bandgap, HSE06 (eV):              5.1528
# Bandgap, GGA (eV):                3.8145
# Kpoint for VBM:                   0.5, 0.5, 0
# Kpoint for CBM:                   -0.4, 0, 0.4375
# Dielectric constant, electronic:  2.7911
# Dielectric constant, ionic:       2.5442
# Dielectric constant, total:       5.3353
# Refractive index:                 1.6707
# Atomization energy (eV/atom):     -5.031
# Relative energy1 (eV/atom):       -0.1038
# Relative energy2 (eV/atom):       0.5008
# Volume of the unit cell (A^3):    124.35
# Density (g/cm^3):                 2.5199
# Tool:                             VASP
# Pseudopotential:                  PAW
# Note:                             ENCUT=400eV, k-spacing_relax=0.20/Angstrom, k-spacing_bandgap=0.15/Angstrom
# Created by:                       C.Kim, T.D.Huan, S.Krishnan, R. Ramprasad