data_1
_audit_creation_method   'Generated by vasp2cif'
_cell_length_a    4.5518058432
_cell_length_b    4.46865179965
_cell_length_c    4.83245527841
_cell_angle_alpha    88.7656297897
_cell_angle_beta    103.783683641
_cell_angle_gamma    90.903866924

_symmetry_space_group_name_H-M    'P 1'
loop_
_atom_site_label
_atom_site_type_symbol
_atom_site_fract_x
_atom_site_fract_y
_atom_site_fract_z
_atom_site_occupancy
F1   F   0.371987590998053   0.003192784752258   0.017385023448696   1.0
F2   F   0.825054424847657   0.997956363525802   0.614548249272701   1.0
F3   F   0.963804754949692   0.456535429102544   0.984772090895554   1.0
H4   H   0.408217737704526   0.488513751498296   0.170332844181715   1.0
H5   H   0.673073261800411   0.318563690351070   0.423670292504355   1.0
H6   H   0.662201173065647   0.695236931876728   0.400080683158919   1.0
H7   H   0.208374422344242   0.294094866569424   0.561863682138764   1.0
H8   H   0.476388095609494   0.525893744743342   0.788415769459974   1.0
H9   H   0.182731502573169   0.692993909600681   0.527488139999392   1.0
C10   C   0.332807831535867   0.503727900072313   0.577500399070679   1.0
Ge11   Ge   0.947467496830079   0.009122119647444   0.028933396997409   1.0
N12   N   0.534781707741040   0.501728508260108   0.375209428870960   1.0




# HOIP entry ID:                    0042
# Khazana ID:                       1892
# Organic cation source:            T.D.Huan et al., Phys. Rev. B 93,094105(2016)
# Label:                            Methylammonium Germanium Fluoride
# Material class:                   Hybrid organic-inorganic perovskite ( MC_ino )
# Geometry class:                   Bulk crystalline materials ( GC_cry )
# Organic cation chemical formula:  CH3NH3
# Number of atom types:             5
# Total number of atoms:            12
# Atom types:                       C H N  Ge F
# Number of each atom:              1 6 1  1 3
# Bandgap, HSE06 (eV):              4.9297
# Bandgap, GGA (eV):                3.7372
# Kpoint for VBM:                   0.5, 0.5, 0.5
# Kpoint for CBM:                   0.5, 0.5, 0.5
# Dielectric constant, electronic:  2.9119
# Dielectric constant, ionic:       4.1736
# Dielectric constant, total:       7.0856
# Refractive index:                 1.7064
# Atomization energy (eV/atom):     -4.6718
# Relative energy1 (eV/atom):       -0.2127
# Relative energy2 (eV/atom):       0.543
# Volume of the unit cell (A^3):    95.44
# Density (g/cm^3):                 2.8129
# Tool:                             VASP
# Pseudopotential:                  PAW
# Note:                             ENCUT=400eV, k-spacing_relax=0.20/Angstrom, k-spacing_bandgap=0.15/Angstrom
# Created by:                       C.Kim, T.D.Huan, S.Krishnan, R. Ramprasad