data_1
_audit_creation_method   'Generated by vasp2cif'
_cell_length_a    4.6412432626
_cell_length_b    4.44100020036
_cell_length_c    4.78398239176
_cell_angle_alpha    93.4471355464
_cell_angle_beta    76.2843638442
_cell_angle_gamma    93.3768727319

_symmetry_space_group_name_H-M    'P 1'
loop_
_atom_site_label
_atom_site_type_symbol
_atom_site_fract_x
_atom_site_fract_y
_atom_site_fract_z
_atom_site_occupancy
F1   F   0.073138328958905   0.008285802545572   0.679001668814088   1.0
F2   F   0.551550765919998   0.003674449367281   0.108207612301392   1.0
F3   F   0.953155821403875   0.551662563594256   0.050711574230469   1.0
H4   H   0.191782472803709   0.366680108067719   0.527864989759721   1.0
H5   H   0.478869023829667   0.425668964595907   0.252663126115067   1.0
H6   H   0.315180017784499   0.723127098531769   0.450478265515727   1.0
H7   H   0.632483897737288   0.254026132792909   0.658523631775594   1.0
H8   H   0.773483224590933   0.630991905102960   0.582051700100074   1.0
H9   H   0.459413600660909   0.567853019766154   0.865176174080290   1.0
C10   C   0.577284927584692   0.487204576597556   0.654500883157382   1.0
Ge11   Ge   0.975440559132416   0.001468744534236   0.097030121218865   1.0
N12   N   0.376207359593074   0.505506634503725   0.454800252931349   1.0




# HOIP entry ID:                    0043
# Khazana ID:                       1893
# Organic cation source:            T.D.Huan et al., Phys. Rev. B 93,094105(2016)
# Label:                            Methylammonium Germanium Fluoride
# Material class:                   Hybrid organic-inorganic perovskite ( MC_ino )
# Geometry class:                   Bulk crystalline materials ( GC_cry )
# Organic cation chemical formula:  CH3NH3
# Number of atom types:             5
# Total number of atoms:            12
# Atom types:                       C H N  Ge F
# Number of each atom:              1 6 1  1 3
# Bandgap, HSE06 (eV):              4.7182
# Bandgap, GGA (eV):                3.5371
# Kpoint for VBM:                   0.5, 0.5, 0.5
# Kpoint for CBM:                   0.5, 0.5, 0.5
# Dielectric constant, electronic:  2.8931
# Dielectric constant, ionic:       5.4315
# Dielectric constant, total:       8.3245
# Refractive index:                 1.7009
# Atomization energy (eV/atom):     -4.6716
# Relative energy1 (eV/atom):       -0.2125
# Relative energy2 (eV/atom):       0.5432
# Volume of the unit cell (A^3):    95.52
# Density (g/cm^3):                 2.8106
# Tool:                             VASP
# Pseudopotential:                  PAW
# Note:                             ENCUT=400eV, k-spacing_relax=0.20/Angstrom, k-spacing_bandgap=0.15/Angstrom
# Created by:                       C.Kim, T.D.Huan, S.Krishnan, R. Ramprasad