data_1
_audit_creation_method   'Generated by vasp2cif'
_cell_length_a    4.46373087577
_cell_length_b    3.79510253404
_cell_length_c    5.72933316883
_cell_angle_alpha    82.4826958679
_cell_angle_beta    88.2977679615
_cell_angle_gamma    87.4047045517

_symmetry_space_group_name_H-M    'P 1'
loop_
_atom_site_label
_atom_site_type_symbol
_atom_site_fract_x
_atom_site_fract_y
_atom_site_fract_z
_atom_site_occupancy
F1   F   0.998136611319360   0.658671906074744   0.766492232039788   1.0
F2   F   0.524773508860683   0.411612456052737   0.040129342487084   1.0
F3   F   0.990065252484058   0.521388916470428   0.297587578680051   1.0
H4   H   0.276661207002441   0.739994681056871   0.420415681657744   1.0
H5   H   0.653620191919330   0.714136256713736   0.394839902992217   1.0
H6   H   0.461595896106950   0.063348325874735   0.262771924679171   1.0
H7   H   0.491950997997257   0.886206236807197   0.779474290174534   1.0
H8   H   0.701204347526016   0.214604131430789   0.601966585150024   1.0
H9   H   0.302358690029465   0.262102377048237   0.623011500853579   1.0
C10   C   0.492845558704055   0.076473722727947   0.622232056540064   1.0
Ge11   Ge   0.965522599068926   0.275440787032572   0.013655329974590   1.0
N12   N   0.468615138981427   0.882520202710189   0.413743574771225   1.0




# HOIP entry ID:                    0044
# Khazana ID:                       1894
# Organic cation source:            T.D.Huan et al., Phys. Rev. B 93,094105(2016)
# Label:                            Methylammonium Germanium Fluoride
# Material class:                   Hybrid organic-inorganic perovskite ( MC_ino )
# Geometry class:                   Bulk crystalline materials ( GC_cry )
# Organic cation chemical formula:  CH3NH3
# Number of atom types:             5
# Total number of atoms:            12
# Atom types:                       C H N  Ge F
# Number of each atom:              1 6 1  1 3
# Bandgap, HSE06 (eV):              5.7456
# Bandgap, GGA (eV):                4.488
# Kpoint for VBM:                   0.5, 0.5, 0
# Kpoint for CBM:                   0.5, 0.0455, 0.5
# Dielectric constant, electronic:  2.7603
# Dielectric constant, ionic:       3.8036
# Dielectric constant, total:       6.5639
# Refractive index:                 1.6614
# Atomization energy (eV/atom):     -4.6569
# Relative energy1 (eV/atom):       -0.1978
# Relative energy2 (eV/atom):       0.5579
# Volume of the unit cell (A^3):    96.1
# Density (g/cm^3):                 2.7936
# Tool:                             VASP
# Pseudopotential:                  PAW
# Note:                             ENCUT=400eV, k-spacing_relax=0.20/Angstrom, k-spacing_bandgap=0.15/Angstrom
# Created by:                       C.Kim, T.D.Huan, S.Krishnan, R. Ramprasad