data_1
_audit_creation_method   'Generated by vasp2cif'
_cell_length_a    4.65227202179
_cell_length_b    3.57530083584
_cell_length_c    6.47623452672
_cell_angle_alpha    107.625055541
_cell_angle_beta    84.2729689676
_cell_angle_gamma    75.4908549429

_symmetry_space_group_name_H-M    'P 1'
loop_
_atom_site_label
_atom_site_type_symbol
_atom_site_fract_x
_atom_site_fract_y
_atom_site_fract_z
_atom_site_occupancy
F1   F   0.946858064304685   0.797073232538366   0.216195798207188   1.0
F2   F   0.418020075399177   0.905319452483646   0.965824405536360   1.0
F3   F   0.110990881833601   0.452520349236949   0.738988200023726   1.0
H4   H   0.794543244615781   0.232310004707173   0.442551899283650   1.0
H5   H   0.569917985442913   0.581158101092264   0.685222291034734   1.0
H6   H   0.794158609356614   0.709526720849539   0.520350265413803   1.0
H7   H   0.316769373178509   0.358895029621721   0.357649681539840   1.0
H8   H   0.246260894697123   0.897281836388530   0.494358634381364   1.0
H9   H   0.506991377194957   0.638366191340175   0.240940309980537   1.0
C10   C   0.411475205266882   0.612166290287320   0.393156009617940   1.0
Ge11   Ge   0.986360416933877   0.010550389714432   0.963796902015169   1.0
N12   N   0.656033871775790   0.528962401739960   0.521965602965643   1.0




# HOIP entry ID:                    0045
# Khazana ID:                       1895
# Organic cation source:            T.D.Huan et al., Phys. Rev. B 93,094105(2016)
# Label:                            Methylammonium Germanium Fluoride
# Material class:                   Hybrid organic-inorganic perovskite ( MC_ino )
# Geometry class:                   Bulk crystalline materials ( GC_cry )
# Organic cation chemical formula:  CH3NH3
# Number of atom types:             5
# Total number of atoms:            12
# Atom types:                       C H N  Ge F
# Number of each atom:              1 6 1  1 3
# Bandgap, HSE06 (eV):              5.2403
# Bandgap, GGA (eV):                3.9936
# Kpoint for VBM:                   0.5, 0.5, 0
# Kpoint for CBM:                   0.5, 0, 0.5
# Dielectric constant, electronic:  2.7677
# Dielectric constant, ionic:       3.6143
# Dielectric constant, total:       6.382
# Refractive index:                 1.6636
# Atomization energy (eV/atom):     -4.6422
# Relative energy1 (eV/atom):       -0.1831
# Relative energy2 (eV/atom):       0.5726
# Volume of the unit cell (A^3):    97.57
# Density (g/cm^3):                 2.7515
# Tool:                             VASP
# Pseudopotential:                  PAW
# Note:                             ENCUT=400eV, k-spacing_relax=0.20/Angstrom, k-spacing_bandgap=0.15/Angstrom
# Created by:                       C.Kim, T.D.Huan, S.Krishnan, R. Ramprasad