data_1
_audit_creation_method   'Generated by vasp2cif'
_cell_length_a    5.97109360525
_cell_length_b    3.54415890618
_cell_length_c    4.61040886095
_cell_angle_alpha    79.3107773307
_cell_angle_beta    94.590466041
_cell_angle_gamma    88.380770642

_symmetry_space_group_name_H-M    'P 1'
loop_
_atom_site_label
_atom_site_type_symbol
_atom_site_fract_x
_atom_site_fract_y
_atom_site_fract_z
_atom_site_occupancy
F1   F   0.180527169358534   0.705973319560400   0.065296282243011   1.0
F2   F   0.934596434129318   0.013113880323672   0.431962294795056   1.0
F3   F   0.683040327839976   0.741297597376864   0.018645695531106   1.0
H4   H   0.369116212761654   0.995019622277155   0.285693867878742   1.0
H5   H   0.629615550631790   0.025722322284317   0.445983190898879   1.0
H6   H   0.510215335355262   0.396232058624598   0.213022661562931   1.0
H7   H   0.352984923330815   0.072664418025340   0.793701916866347   1.0
H8   H   0.501355148446414   0.498640157052485   0.713139782240177   1.0
H9   H   0.222556874872353   0.476516053144998   0.544899741473252   1.0
C10   C   0.379524332513547   0.318551100602335   0.626418786043800   1.0
Ge11   Ge   0.932770847732669   0.107554895041083   0.994212123272014   1.0
N12   N   0.476536843027652   0.171074575686710   0.377593657194886   1.0




# HOIP entry ID:                    0046
# Khazana ID:                       1896
# Organic cation source:            T.D.Huan et al., Phys. Rev. B 93,094105(2016)
# Label:                            Methylammonium Germanium Fluoride
# Material class:                   Hybrid organic-inorganic perovskite ( MC_ino )
# Geometry class:                   Bulk crystalline materials ( GC_cry )
# Organic cation chemical formula:  CH3NH3
# Number of atom types:             5
# Total number of atoms:            12
# Atom types:                       C H N  Ge F
# Number of each atom:              1 6 1  1 3
# Bandgap, HSE06 (eV):              5.4255
# Bandgap, GGA (eV):                4.264
# Kpoint for VBM:                   0.5, 0.5, 0.5
# Kpoint for CBM:                   0.0714, 0.0455, 0.5
# Dielectric constant, electronic:  2.8189
# Dielectric constant, ionic:       3.8785
# Dielectric constant, total:       6.6975
# Refractive index:                 1.679
# Atomization energy (eV/atom):     -4.6495
# Relative energy1 (eV/atom):       -0.1904
# Relative energy2 (eV/atom):       0.5653
# Volume of the unit cell (A^3):    95.47
# Density (g/cm^3):                 2.8121
# Tool:                             VASP
# Pseudopotential:                  PAW
# Note:                             ENCUT=400eV, k-spacing_relax=0.20/Angstrom, k-spacing_bandgap=0.15/Angstrom
# Created by:                       C.Kim, T.D.Huan, S.Krishnan, R. Ramprasad