data_1
_audit_creation_method   'Generated by vasp2cif'
_cell_length_a    7.00066474403
_cell_length_b    4.16807348149
_cell_length_c    6.22744153193
_cell_angle_alpha    43.866911048
_cell_angle_beta    115.622212256
_cell_angle_gamma    126.844029799

_symmetry_space_group_name_H-M    'P 1'
loop_
_atom_site_label
_atom_site_type_symbol
_atom_site_fract_x
_atom_site_fract_y
_atom_site_fract_z
_atom_site_occupancy
F1   F   0.214820036198212   0.903185942728889   0.046148896724866   1.0
F2   F   0.966884800510080   0.878136732889885   0.582744879158604   1.0
F3   F   0.725759437114377   0.396181203769501   0.051574544709574   1.0
H4   H   0.646392889534908   0.723313509680530   0.542297747331965   1.0
H5   H   0.380406011642151   0.661803335342377   0.364215170074210   1.0
H6   H   0.395323281024190   0.257710028226135   0.753005021021330   1.0
H7   H   0.549868796570593   0.341127948577125   0.334042517714124   1.0
H8   H   0.564847251617444   0.904390658966157   0.745871173042126   1.0
H9   H   0.281459421506767   0.833875040712854   0.557034816212045   1.0
C10   C   0.466135870024907   0.108632178101132   0.547416225133048   1.0
Ge11   Ge   0.966438784675184   0.314599107703849   0.048844718096333   1.0
N12   N   0.471963419581229   0.461744313301630   0.553454290781801   1.0




# HOIP entry ID:                    0047
# Khazana ID:                       1897
# Organic cation source:            T.D.Huan et al., Phys. Rev. B 93,094105(2016)
# Label:                            Methylammonium Germanium Fluoride
# Material class:                   Hybrid organic-inorganic perovskite ( MC_ino )
# Geometry class:                   Bulk crystalline materials ( GC_cry )
# Organic cation chemical formula:  CH3NH3
# Number of atom types:             5
# Total number of atoms:            12
# Atom types:                       C H N  Ge F
# Number of each atom:              1 6 1  1 3
# Bandgap, HSE06 (eV):              4.9235
# Bandgap, GGA (eV):                3.7173
# Kpoint for VBM:                   0, 0.5, 0
# Kpoint for CBM:                   0.5, 0, 0.0455
# Dielectric constant, electronic:  2.6808
# Dielectric constant, ionic:       4.722
# Dielectric constant, total:       7.4027
# Refractive index:                 1.6373
# Atomization energy (eV/atom):     -4.6586
# Relative energy1 (eV/atom):       -0.1995
# Relative energy2 (eV/atom):       0.5562
# Volume of the unit cell (A^3):    100.77
# Density (g/cm^3):                 2.6642
# Tool:                             VASP
# Pseudopotential:                  PAW
# Note:                             ENCUT=400eV, k-spacing_relax=0.20/Angstrom, k-spacing_bandgap=0.15/Angstrom
# Created by:                       C.Kim, T.D.Huan, S.Krishnan, R. Ramprasad