data_1
_audit_creation_method   'Generated by vasp2cif'
_cell_length_a    4.67499015941
_cell_length_b    5.04501339356
_cell_length_c    5.07229887879
_cell_angle_alpha    100.879250546
_cell_angle_beta    96.4495677164
_cell_angle_gamma    95.9999870108

_symmetry_space_group_name_H-M    'P 1'
loop_
_atom_site_label
_atom_site_type_symbol
_atom_site_fract_x
_atom_site_fract_y
_atom_site_fract_z
_atom_site_occupancy
C1   C   0.308317761675042   0.281894484074897   0.327111504191784   1.0
H2   H   0.040171372523886   0.268438616919703   0.616727244417746   1.0
H3   H   0.035200406648521   0.571746964966685   0.318662862817334   1.0
H4   H   0.627252691160223   0.037160715592364   0.305545853320560   1.0
H5   H   0.622919560491127   0.262759891888301   0.079954359098082   1.0
H6   H   0.283102825515023   0.564156330351572   0.088338830164197   1.0
H7   H   0.286322062692783   0.033960435061317   0.601285147654174   1.0
F8   F   0.739047569787296   0.751985400279366   0.445268403450903   1.0
F9   F   0.742164750741843   0.394877116973056   0.794897062618404   1.0
F10   F   0.231555538255428   0.746262993720059   0.794233630620795   1.0
N11   N   0.190619419082658   0.174964266674174   0.517593219688692   1.0
N12   N   0.188424217609210   0.476276935220326   0.225903758730397   1.0
N13   N   0.535598630361221   0.183635987346790   0.226924045060564   1.0
Ge14   Ge   0.817403193455796   0.784069860931368   0.831614078166389   1.0




# HOIP entry ID:                    0048
# Khazana ID:                       1898
# Organic cation source:            B.Saparov et al., Chem. Rev. 116, 4558 (2016)
# Label:                            Guanidinium Germanium Fluoride
# Material class:                   Hybrid organic-inorganic perovskite ( MC_ino )
# Geometry class:                   Bulk crystalline materials ( GC_cry )
# Organic cation chemical formula:  C(NH2)3
# Number of atom types:             5
# Total number of atoms:            14
# Atom types:                       C H N  Ge F
# Number of each atom:              1 6 3  1 3
# Bandgap, HSE06 (eV):              5.8538
# Bandgap, GGA (eV):                4.4213
# Kpoint for VBM:                   0.5, 0.25, 0.25
# Kpoint for CBM:                   0.5, 0.5, 0.5
# Dielectric constant, electronic:  2.8878
# Dielectric constant, ionic:       3.9751
# Dielectric constant, total:       6.8629
# Refractive index:                 1.6994
# Atomization energy (eV/atom):     -5.1152
# Relative energy1 (eV/atom):       0.0529
# Relative energy2 (eV/atom):       0.7007
# Volume of the unit cell (A^3):    115.77
# Density (g/cm^3):                 2.7208
# Tool:                             VASP
# Pseudopotential:                  PAW
# Note:                             ENCUT=400eV, k-spacing_relax=0.20/Angstrom, k-spacing_bandgap=0.15/Angstrom
# Created by:                       C.Kim, T.D.Huan, S.Krishnan, R. Ramprasad