data_1
_audit_creation_method   'Generated by vasp2cif'
_cell_length_a    5.26846923108
_cell_length_b    4.61977830679
_cell_length_c    4.88118589355
_cell_angle_alpha    85.2799198201
_cell_angle_beta    100.234023252
_cell_angle_gamma    82.5037904224

_symmetry_space_group_name_H-M    'P 1'
loop_
_atom_site_label
_atom_site_type_symbol
_atom_site_fract_x
_atom_site_fract_y
_atom_site_fract_z
_atom_site_occupancy
C1   C   0.765079170609035   0.293988191910692   0.637474686932421   1.0
H2   H   0.971175719932859   0.263325905923786   0.324887845430389   1.0
H3   H   0.016831540658743   0.597194545314949   0.653152182147039   1.0
H4   H   0.480871537238812   0.039238504612626   0.667413401613508   1.0
H5   H   0.514439512764653   0.288239510429442   0.911276254323049   1.0
H6   H   0.790584441774648   0.629685589911318   0.877614754210015   1.0
H7   H   0.754845345717101   0.010183338009128   0.337221638902591   1.0
F8   F   0.303516103392376   0.737708657602845   0.555137610007314   1.0
F9   F   0.289961423618564   0.224115275077466   0.184536989606002   1.0
F10   F   0.615202420506542   0.715286588542945   0.159834561795307   1.0
N11   N   0.849917310661546   0.165180843970262   0.428913351362873   1.0
N12   N   0.868922267001722   0.522756555303296   0.732220907478073   1.0
N13   N   0.587864779723681   0.183179272799876   0.762269052934663   1.0
Ge14   Ge   0.247988426399793   0.804757220591348   0.150326763256736   1.0




# HOIP entry ID:                    0049
# Khazana ID:                       1899
# Organic cation source:            B.Saparov et al., Chem. Rev. 116, 4558 (2016)
# Label:                            Guanidinium Germanium Fluoride
# Material class:                   Hybrid organic-inorganic perovskite ( MC_ino )
# Geometry class:                   Bulk crystalline materials ( GC_cry )
# Organic cation chemical formula:  C(NH2)3
# Number of atom types:             5
# Total number of atoms:            14
# Atom types:                       C H N  Ge F
# Number of each atom:              1 6 3  1 3
# Bandgap, HSE06 (eV):              5.8294
# Bandgap, GGA (eV):                4.3791
# Kpoint for VBM:                   0.2632, 0.5, 0.2632
# Kpoint for CBM:                   0.5, 0.5, 0.5
# Dielectric constant, electronic:  2.9083
# Dielectric constant, ionic:       4.3361
# Dielectric constant, total:       7.2444
# Refractive index:                 1.7054
# Atomization energy (eV/atom):     -5.1135
# Relative energy1 (eV/atom):       0.0545
# Relative energy2 (eV/atom):       0.7023
# Volume of the unit cell (A^3):    115.24
# Density (g/cm^3):                 2.7333
# Tool:                             VASP
# Pseudopotential:                  PAW
# Note:                             ENCUT=400eV, k-spacing_relax=0.20/Angstrom, k-spacing_bandgap=0.15/Angstrom
# Created by:                       C.Kim, T.D.Huan, S.Krishnan, R. Ramprasad