data_1
_audit_creation_method   'Generated by vasp2cif'
_cell_length_a    8.08314598549
_cell_length_b    3.33110898724
_cell_length_c    4.71254879173
_cell_angle_alpha    80.7765829831
_cell_angle_beta    93.8619337874
_cell_angle_gamma    114.334473772

_symmetry_space_group_name_H-M    'P 1'
loop_
_atom_site_label
_atom_site_type_symbol
_atom_site_fract_x
_atom_site_fract_y
_atom_site_fract_z
_atom_site_occupancy
C1   C   0.468658214368098   0.200828305086297   0.538055352105538   1.0
H2   H   0.352822960981065   0.363404627079596   0.845642320642661   1.0
H3   H   0.584863310624897   0.596470126821352   0.845261264304092   1.0
H4   H   0.631138878539275   0.135614721297912   0.246756485511746   1.0
H5   H   0.744312962841754   0.435137493255134   0.520288058142441   1.0
H6   H   0.193173560590182   0.878803871873323   0.522223066774515   1.0
H7   H   0.305812660291615   0.808231953084700   0.247485765787985   1.0
F8   F   0.968440198187395   0.926605745310432   0.602838333524211   1.0
F9   F   0.174552635712900   0.499639135988531   0.956298730775650   1.0
F10   F   0.763176321258726   0.088557090138806   0.956656334346022   1.0
N11   N   0.468871473159545   0.346766618367226   0.788644909163267   1.0
N12   N   0.311123308195782   0.971262693658502   0.414742117957751   1.0
N13   N   0.625955896385896   0.287974889618233   0.414070625790238   1.0
Ge14   Ge   0.968837618863041   0.889452728419997   0.019046635173808   1.0




# HOIP entry ID:                    0050
# Khazana ID:                       1900
# Organic cation source:            B.Saparov et al., Chem. Rev. 116, 4558 (2016)
# Label:                            Guanidinium Germanium Fluoride
# Material class:                   Hybrid organic-inorganic perovskite ( MC_ino )
# Geometry class:                   Bulk crystalline materials ( GC_cry )
# Organic cation chemical formula:  C(NH2)3
# Number of atom types:             5
# Total number of atoms:            14
# Atom types:                       C H N  Ge F
# Number of each atom:              1 6 3  1 3
# Bandgap, HSE06 (eV):              5.5038
# Bandgap, GGA (eV):                4.2847
# Kpoint for VBM:                   0.1, 0.5, 0.5
# Kpoint for CBM:                   0.5, 0, 0.5
# Dielectric constant, electronic:  2.9682
# Dielectric constant, ionic:       5.1498
# Dielectric constant, total:       8.118
# Refractive index:                 1.7229
# Atomization energy (eV/atom):     -5.113
# Relative energy1 (eV/atom):       0.0551
# Relative energy2 (eV/atom):       0.7028
# Volume of the unit cell (A^3):    114.12
# Density (g/cm^3):                 2.7601
# Tool:                             VASP
# Pseudopotential:                  PAW
# Note:                             ENCUT=400eV, k-spacing_relax=0.20/Angstrom, k-spacing_bandgap=0.15/Angstrom
# Created by:                       C.Kim, T.D.Huan, S.Krishnan, R. Ramprasad