data_1
_audit_creation_method   'Generated by vasp2cif'
_cell_length_a    4.61317206146
_cell_length_b    3.88058056421
_cell_length_c    5.3763607679
_cell_angle_alpha    111.130826921
_cell_angle_beta    92.4751924916
_cell_angle_gamma    72.0809680748

_symmetry_space_group_name_H-M    'P 1'
loop_
_atom_site_label
_atom_site_type_symbol
_atom_site_fract_x
_atom_site_fract_y
_atom_site_fract_z
_atom_site_occupancy
F1   F   0.916151846753348   0.158471220386921   0.759801456085606   1.0
F2   F   0.582440098597090   0.972843114033877   0.041495467969683   1.0
F3   F   0.986213867929812   0.383735755609954   0.290194428665904   1.0
H4   H   0.528992115230263   0.843139193090245   0.314776816751914   1.0
H5   H   0.626347126687965   0.980556728106576   0.631150587107162   1.0
H6   H   0.250900867406723   0.101103865615360   0.575718922364362   1.0
H7   H   0.271550196733193   0.492976304437152   0.412493290455475   1.0
Ge8   Ge   0.022079185705000   0.871752205668097   0.003994072941652   1.0
N9   N   0.461983374537340   0.894051733685024   0.509662097138114   1.0
O10   O   0.434861320419292   0.552579879366731   0.534492860520057   1.0




# HOIP entry ID:                    0052
# Khazana ID:                       1902
# Organic cation source:            G.Kieslich et al., Chem. Sci. 6, 3430 (2015)
# Label:                            Hydroxylammonium Germanium Fluoride
# Material class:                   Hybrid organic-inorganic perovskite ( MC_ino )
# Geometry class:                   Bulk crystalline materials ( GC_cry )
# Organic cation chemical formula:  OHNH3
# Number of atom types:             5
# Total number of atoms:            10
# Atom types:                        H N O Ge F
# Number of each atom:               4 1  1 3
# Bandgap, HSE06 (eV):              5.4461
# Bandgap, GGA (eV):                4.195
# Kpoint for VBM:                   0.5, 0.5, 0.5
# Kpoint for CBM:                   0, 0, 0.4444
# Dielectric constant, electronic:  2.8387
# Dielectric constant, ionic:       4.8362
# Dielectric constant, total:       7.6748
# Refractive index:                 1.6848
# Atomization energy (eV/atom):     -4.4922
# Relative energy1 (eV/atom):       -0.0787
# Relative energy2 (eV/atom):       0.8281
# Volume of the unit cell (A^3):    85.17
# Density (g/cm^3):                 3.1906
# Tool:                             VASP
# Pseudopotential:                  PAW
# Note:                             ENCUT=400eV, k-spacing_relax=0.20/Angstrom, k-spacing_bandgap=0.15/Angstrom
# Created by:                       C.Kim, T.D.Huan, S.Krishnan, R. Ramprasad