data_1
_audit_creation_method   'Generated by vasp2cif'
_cell_length_a    4.76765451927
_cell_length_b    3.67432172975
_cell_length_c    5.29523801906
_cell_angle_alpha    76.352717774
_cell_angle_beta    84.3414982248
_cell_angle_gamma    66.4856936935

_symmetry_space_group_name_H-M    'P 1'
loop_
_atom_site_label
_atom_site_type_symbol
_atom_site_fract_x
_atom_site_fract_y
_atom_site_fract_z
_atom_site_occupancy
F1   F   0.766610039539703   0.389045592480274   0.069524407053259   1.0
F2   F   0.957882447625523   0.626621509390198   0.464422780649401   1.0
F3   F   0.350423000477266   0.006323256471907   0.288517730066012   1.0
H4   H   0.449650665437372   0.562947231918248   0.526897262520651   1.0
H5   H   0.722229113411591   0.095916302457056   0.497726573644190   1.0
H6   H   0.733459697971366   0.313173913577245   0.745136466527519   1.0
H7   H   0.542780500876564   0.860019120834072   0.909522084933883   1.0
Ge8   Ge   0.108739372478879   0.556407730269672   0.118809514472627   1.0
N9   N   0.593613044963679   0.278440820924435   0.624280765178077   1.0
O10   O   0.403252117218053   0.085044521676881   0.778552414954324   1.0




# HOIP entry ID:                    0053
# Khazana ID:                       1903
# Organic cation source:            G.Kieslich et al., Chem. Sci. 6, 3430 (2015)
# Label:                            Hydroxylammonium Germanium Fluoride
# Material class:                   Hybrid organic-inorganic perovskite ( MC_ino )
# Geometry class:                   Bulk crystalline materials ( GC_cry )
# Organic cation chemical formula:  OHNH3
# Number of atom types:             5
# Total number of atoms:            10
# Atom types:                        H N O Ge F
# Number of each atom:               4 1  1 3
# Bandgap, HSE06 (eV):              5.6235
# Bandgap, GGA (eV):                4.3412
# Kpoint for VBM:                   0.5, 0.5, 0.0789
# Kpoint for CBM:                   0.5, 0.0385, 0
# Dielectric constant, electronic:  2.9354
# Dielectric constant, ionic:       5.2214
# Dielectric constant, total:       8.1568
# Refractive index:                 1.7133
# Atomization energy (eV/atom):     -4.5028
# Relative energy1 (eV/atom):       -0.0893
# Relative energy2 (eV/atom):       0.8175
# Volume of the unit cell (A^3):    82.66
# Density (g/cm^3):                 3.2875
# Tool:                             VASP
# Pseudopotential:                  PAW
# Note:                             ENCUT=400eV, k-spacing_relax=0.20/Angstrom, k-spacing_bandgap=0.15/Angstrom
# Created by:                       C.Kim, T.D.Huan, S.Krishnan, R. Ramprasad