data_1
_audit_creation_method   'Generated by vasp2cif'
_cell_length_a    4.67203153635
_cell_length_b    3.37102397967
_cell_length_c    5.67291654772
_cell_angle_alpha    97.2131553934
_cell_angle_beta    77.2299174154
_cell_angle_gamma    109.247085394

_symmetry_space_group_name_H-M    'P 1'
loop_
_atom_site_label
_atom_site_type_symbol
_atom_site_fract_x
_atom_site_fract_y
_atom_site_fract_z
_atom_site_occupancy
F1   F   0.844630851331858   0.789160252944476   0.776987088582857   1.0
F2   F   0.233137413991902   0.538129267771503   0.950835340842094   1.0
F3   F   0.955003008658565   0.954161360978776   0.286985976149127   1.0
H4   H   0.693484401222925   0.132791958655210   0.544313270638596   1.0
H5   H   0.374107886979321   0.947697568258843   0.763547626088757   1.0
H6   H   0.377050843112984   0.297521831147055   0.567904921008838   1.0
H7   H   0.174467024084226   0.777145658984552   0.371593082749809   1.0
Ge8   Ge   0.794351477445103   0.451621434377639   0.050152448776673   1.0
N9   N   0.456746799397345   0.056254177329518   0.590868831471969   1.0
O10   O   0.342290293775705   0.706846489552258   0.426211413691412   1.0




# HOIP entry ID:                    0054
# Khazana ID:                       1904
# Organic cation source:            G.Kieslich et al., Chem. Sci. 6, 3430 (2015)
# Label:                            Hydroxylammonium Germanium Fluoride
# Material class:                   Hybrid organic-inorganic perovskite ( MC_ino )
# Geometry class:                   Bulk crystalline materials ( GC_cry )
# Organic cation chemical formula:  OHNH3
# Number of atom types:             5
# Total number of atoms:            10
# Atom types:                        H N O Ge F
# Number of each atom:               4 1  1 3
# Bandgap, HSE06 (eV):              6.0598
# Bandgap, GGA (eV):                4.6729
# Kpoint for VBM:                   -0.3889, -0.2692, 0.3571
# Kpoint for CBM:                   -0.4444, 0, 0.4286
# Dielectric constant, electronic:  2.9199
# Dielectric constant, ionic:       5.2385
# Dielectric constant, total:       8.1584
# Refractive index:                 1.7088
# Atomization energy (eV/atom):     -4.4976
# Relative energy1 (eV/atom):       -0.0841
# Relative energy2 (eV/atom):       0.8228
# Volume of the unit cell (A^3):    82.13
# Density (g/cm^3):                 3.3087
# Tool:                             VASP
# Pseudopotential:                  PAW
# Note:                             ENCUT=400eV, k-spacing_relax=0.20/Angstrom, k-spacing_bandgap=0.15/Angstrom
# Created by:                       C.Kim, T.D.Huan, S.Krishnan, R. Ramprasad