data_1
_audit_creation_method   'Generated by vasp2cif'
_cell_length_a    5.66460790941
_cell_length_b    3.49297420398
_cell_length_c    4.72297261192
_cell_angle_alpha    73.3689403889
_cell_angle_beta    79.6598032685
_cell_angle_gamma    69.5283019285

_symmetry_space_group_name_H-M    'P 1'
loop_
_atom_site_label
_atom_site_type_symbol
_atom_site_fract_x
_atom_site_fract_y
_atom_site_fract_z
_atom_site_occupancy
F1   F   0.809791896410690   0.294570857896967   0.162950201291961   1.0
F2   F   0.130301159500170   0.804583655112660   0.813612018010640   1.0
F3   F   0.363360839586761   0.947558837695201   0.225354067526582   1.0
H4   H   0.334807515338016   0.097836466712940   0.660883954498775   1.0
H5   H   0.550244302806828   0.362336143319759   0.488514579785543   1.0
H6   H   0.498824773069588   0.211092316469971   0.865923650953065   1.0
H7   H   0.743570442750302   0.602808118226278   0.867685500633573   1.0
Ge8   Ge   0.073212601899077   0.719084975345316   0.249717854499804   1.0
N9   N   0.505073824945811   0.141520749511136   0.667417491813816   1.0
O10   O   0.697792643692842   0.747837879709854   0.658930680986281   1.0




# HOIP entry ID:                    0055
# Khazana ID:                       1905
# Organic cation source:            G.Kieslich et al., Chem. Sci. 6, 3430 (2015)
# Label:                            Hydroxylammonium Germanium Fluoride
# Material class:                   Hybrid organic-inorganic perovskite ( MC_ino )
# Geometry class:                   Bulk crystalline materials ( GC_cry )
# Organic cation chemical formula:  OHNH3
# Number of atom types:             5
# Total number of atoms:            10
# Atom types:                        H N O Ge F
# Number of each atom:               4 1  1 3
# Bandgap, HSE06 (eV):              5.5998
# Bandgap, GGA (eV):                4.3187
# Kpoint for VBM:                   0.5, 0.5, 0.5
# Kpoint for CBM:                   0.4286, 0, 0
# Dielectric constant, electronic:  2.9298
# Dielectric constant, ionic:       6.7666
# Dielectric constant, total:       9.6964
# Refractive index:                 1.7117
# Atomization energy (eV/atom):     -4.5
# Relative energy1 (eV/atom):       -0.0865
# Relative energy2 (eV/atom):       0.8203
# Volume of the unit cell (A^3):    83.56
# Density (g/cm^3):                 3.2521
# Tool:                             VASP
# Pseudopotential:                  PAW
# Note:                             ENCUT=400eV, k-spacing_relax=0.20/Angstrom, k-spacing_bandgap=0.15/Angstrom
# Created by:                       C.Kim, T.D.Huan, S.Krishnan, R. Ramprasad