data_1
_audit_creation_method   'Generated by vasp2cif'
_cell_length_a    5.15926860609
_cell_length_b    3.69667118202
_cell_length_c    4.78425893875
_cell_angle_alpha    112.248458063
_cell_angle_beta    93.2383324581
_cell_angle_gamma    76.8011883964

_symmetry_space_group_name_H-M    'P 1'
loop_
_atom_site_label
_atom_site_type_symbol
_atom_site_fract_x
_atom_site_fract_y
_atom_site_fract_z
_atom_site_occupancy
F1   F   0.827088901205388   0.213594101752429   0.790823199949431   1.0
F2   F   0.207473991358330   0.667692301642526   0.974102402157956   1.0
F3   F   0.033883830273638   0.438815831683669   0.352672826651731   1.0
H4   H   0.238052727944923   0.112338518690738   0.507329096898055   1.0
H5   H   0.524193156398325   0.117974451438306   0.702515379114227   1.0
H6   H   0.274416133587871   0.927490785978023   0.786712356322733   1.0
H7   H   0.353221142131775   0.472314962564552   0.302409074729586   1.0
Ge8   Ge   0.838318316561857   0.733918071063865   0.107208859121849   1.0
N9   N   0.372533589059443   0.967183078573742   0.620402932849771   1.0
O10   O   0.505728211478496   0.569817896612134   0.418193872204684   1.0




# HOIP entry ID:                    0056
# Khazana ID:                       1906
# Organic cation source:            G.Kieslich et al., Chem. Sci. 6, 3430 (2015)
# Label:                            Hydroxylammonium Germanium Fluoride
# Material class:                   Hybrid organic-inorganic perovskite ( MC_ino )
# Geometry class:                   Bulk crystalline materials ( GC_cry )
# Organic cation chemical formula:  OHNH3
# Number of atom types:             5
# Total number of atoms:            10
# Atom types:                        H N O Ge F
# Number of each atom:               4 1  1 3
# Bandgap, HSE06 (eV):              5.9243
# Bandgap, GGA (eV):                4.6053
# Kpoint for VBM:                   0.0526, 0.5, 0
# Kpoint for CBM:                   0.0625, 0, 0.45
# Dielectric constant, electronic:  2.9416
# Dielectric constant, ionic:       4.6583
# Dielectric constant, total:       7.5999
# Refractive index:                 1.7151
# Atomization energy (eV/atom):     -4.5039
# Relative energy1 (eV/atom):       -0.0904
# Relative energy2 (eV/atom):       0.8165
# Volume of the unit cell (A^3):    82.18
# Density (g/cm^3):                 3.3067
# Tool:                             VASP
# Pseudopotential:                  PAW
# Note:                             ENCUT=400eV, k-spacing_relax=0.20/Angstrom, k-spacing_bandgap=0.15/Angstrom
# Created by:                       C.Kim, T.D.Huan, S.Krishnan, R. Ramprasad