data_1
_audit_creation_method   'Generated by vasp2cif'
_cell_length_a    5.90807247936
_cell_length_b    3.45422190082
_cell_length_c    4.7177273921
_cell_angle_alpha    72.3984774401
_cell_angle_beta    90.8074537786
_cell_angle_gamma    66.8664014436

_symmetry_space_group_name_H-M    'P 1'
loop_
_atom_site_label
_atom_site_type_symbol
_atom_site_fract_x
_atom_site_fract_y
_atom_site_fract_z
_atom_site_occupancy
F1   F   0.233598596371827   0.907656756286407   0.911434733480043   1.0
F2   F   0.901455540716917   0.788384239754322   0.614485474655709   1.0
F3   F   0.698279857923389   0.185273953630713   0.006442202758919   1.0
H4   H   0.499753831331724   0.712665700362628   0.174768825438299   1.0
H5   H   0.729848529009047   0.378801418064022   0.476922249591162   1.0
H6   H   0.430972385577384   0.332771474508206   0.742468968539519   1.0
H7   H   0.511763248723867   0.892162521163755   0.471117112422092   1.0
Ge8   Ge   0.000902547789046   0.618055472573381   0.038470384267185   1.0
N9   N   0.548981435104110   0.617556067050607   0.403321777080187   1.0
O10   O   0.385774027452627   0.411432396606038   0.523448271766853   1.0




# HOIP entry ID:                    0057
# Khazana ID:                       1907
# Organic cation source:            G.Kieslich et al., Chem. Sci. 6, 3430 (2015)
# Label:                            Hydroxylammonium Germanium Fluoride
# Material class:                   Hybrid organic-inorganic perovskite ( MC_ino )
# Geometry class:                   Bulk crystalline materials ( GC_cry )
# Organic cation chemical formula:  OHNH3
# Number of atom types:             5
# Total number of atoms:            10
# Atom types:                        H N O Ge F
# Number of each atom:               4 1  1 3
# Bandgap, HSE06 (eV):              5.7729
# Bandgap, GGA (eV):                4.4257
# Kpoint for VBM:                   -0.0714, -0.3571, 0.3889
# Kpoint for CBM:                   0.5, 0, 0.5
# Dielectric constant, electronic:  2.8888
# Dielectric constant, ionic:       6.8413
# Dielectric constant, total:       9.7301
# Refractive index:                 1.6996
# Atomization energy (eV/atom):     -4.499
# Relative energy1 (eV/atom):       -0.0855
# Relative energy2 (eV/atom):       0.8214
# Volume of the unit cell (A^3):    83.42
# Density (g/cm^3):                 3.2575
# Tool:                             VASP
# Pseudopotential:                  PAW
# Note:                             ENCUT=400eV, k-spacing_relax=0.20/Angstrom, k-spacing_bandgap=0.15/Angstrom
# Created by:                       C.Kim, T.D.Huan, S.Krishnan, R. Ramprasad