data_1
_audit_creation_method   'Generated by vasp2cif'
_cell_length_a    4.98934232891
_cell_length_b    4.46658247871
_cell_length_c    4.78655352951
_cell_angle_alpha    71.3281758062
_cell_angle_beta    83.5250004781
_cell_angle_gamma    87.3760097498

_symmetry_space_group_name_H-M    'P 1'
loop_
_atom_site_label
_atom_site_type_symbol
_atom_site_fract_x
_atom_site_fract_y
_atom_site_fract_z
_atom_site_occupancy
Ge1   Ge   0.611538003001861   0.306887020509947   0.504426427245889   1.0
F2   F   0.675408024603072   0.883955314725625   0.461758968691669   1.0
F3   F   0.999476405383014   0.353832169053582   0.474730511086996   1.0
F4   F   0.619217673275109   0.477646442219886   0.080454128314209   1.0
N5   N   0.147690030826716   0.702304172902465   0.823905444887572   1.0
N6   N   0.223393169912733   0.987431460777209   0.134629751999682   1.0
H7   H   0.335911930798204   0.606381632463417   0.837998021252552   1.0
H8   H   0.414500406817247   0.905758309600458   0.161610603101217   1.0
H9   H   0.019078130215476   0.634173874313916   0.706846406789801   1.0
H10   H   0.141814762172167   0.121501839583232   0.260096219117287   1.0
H11   H   0.861084913609844   0.968954947011348   0.983310880745428   1.0
C12   C   0.067046549384507   0.888162816838971   0.980132636767699   1.0




# HOIP entry ID:                    0058
# Khazana ID:                       1908
# Organic cation source:            T.D.Huan et al., Phys. Rev. B 93,094105(2016)
# Label:                            Formamidinium Germanium Fluoride
# Material class:                   Hybrid organic-inorganic perovskite ( MC_ino )
# Geometry class:                   Bulk crystalline materials ( GC_cry )
# Organic cation chemical formula:  HC(NH2)2
# Number of atom types:             5
# Total number of atoms:            12
# Atom types:                       C H N  Ge F
# Number of each atom:              1 5 2  1 3
# Bandgap, HSE06 (eV):              5.2863
# Bandgap, GGA (eV):                3.988
# Kpoint for VBM:                   0.5, 0.5, 0.5
# Kpoint for CBM:                   0.5, 0.5, 0.5
# Dielectric constant, electronic:  2.94
# Dielectric constant, ionic:       3.596
# Dielectric constant, total:       6.536
# Refractive index:                 1.7146
# Atomization energy (eV/atom):     -5.014
# Relative energy1 (eV/atom):       -0.4624
# Relative energy2 (eV/atom):       0.2934
# Volume of the unit cell (A^3):    100.41
# Density (g/cm^3):                 2.8887
# Tool:                             VASP
# Pseudopotential:                  PAW
# Note:                             ENCUT=400eV, k-spacing_relax=0.20/Angstrom, k-spacing_bandgap=0.15/Angstrom
# Created by:                       C.Kim, T.D.Huan, S.Krishnan, R. Ramprasad