data_1
_audit_creation_method   'Generated by vasp2cif'
_cell_length_a    4.56922541586
_cell_length_b    4.84417696575
_cell_length_c    5.22308061937
_cell_angle_alpha    102.319582872
_cell_angle_beta    101.536912794
_cell_angle_gamma    71.3883897611

_symmetry_space_group_name_H-M    'P 1'
loop_
_atom_site_label
_atom_site_type_symbol
_atom_site_fract_x
_atom_site_fract_y
_atom_site_fract_z
_atom_site_occupancy
Ge1   Ge   0.360955821079529   0.473770643391781   0.417976908227878   1.0
F2   F   0.488801588252244   0.903993465281026   0.207693423224121   1.0
F3   F   0.564741619516454   0.275858449794022   0.738096968082637   1.0
F4   F   0.974665929089944   0.402226056053657   0.446753091554342   1.0
N5   N   0.921801463245288   0.648232089597158   0.987688352506900   1.0
N6   N   0.205416779551982   0.881081562325861   0.677350126839855   1.0
H7   H   0.202219377399793   0.806321476582504   0.844933469779676   1.0
H8   H   0.983664132449711   0.009139287809980   0.626412845349115   1.0
H9   H   0.819905606062463   0.479084805376054   0.931248162805566   1.0
H10   H   0.349085230365752   0.013912446034645   0.711188569038136   1.0
H11   H   0.838538236312480   0.081039516061153   0.190802539247684   1.0
C12   C   0.776544216674452   0.877870201692055   0.117865543344095   1.0




# HOIP entry ID:                    0059
# Khazana ID:                       1909
# Organic cation source:            T.D.Huan et al., Phys. Rev. B 93,094105(2016)
# Label:                            Formamidinium Germanium Fluoride
# Material class:                   Hybrid organic-inorganic perovskite ( MC_ino )
# Geometry class:                   Bulk crystalline materials ( GC_cry )
# Organic cation chemical formula:  HC(NH2)2
# Number of atom types:             5
# Total number of atoms:            12
# Atom types:                       C H N  Ge F
# Number of each atom:              1 5 2  1 3
# Bandgap, HSE06 (eV):              4.5314
# Bandgap, GGA (eV):                3.2258
# Kpoint for VBM:                   0.5, 0.5, 0.5
# Kpoint for CBM:                   0.5, 0.5, 0.5
# Dielectric constant, electronic:  2.9175
# Dielectric constant, ionic:       2.7917
# Dielectric constant, total:       5.7092
# Refractive index:                 1.7081
# Atomization energy (eV/atom):     -4.8614
# Relative energy1 (eV/atom):       -0.3098
# Relative energy2 (eV/atom):       0.4459
# Volume of the unit cell (A^3):    105.95
# Density (g/cm^3):                 2.7376
# Tool:                             VASP
# Pseudopotential:                  PAW
# Note:                             ENCUT=400eV, k-spacing_relax=0.20/Angstrom, k-spacing_bandgap=0.15/Angstrom
# Created by:                       C.Kim, T.D.Huan, S.Krishnan, R. Ramprasad