data_1
_audit_creation_method   'Generated by vasp2cif'
_cell_length_a    5.4729951532
_cell_length_b    5.42753598502
_cell_length_c    5.48063109371
_cell_angle_alpha    91.7728291107
_cell_angle_beta    88.7412235074
_cell_angle_gamma    88.3213120928

_symmetry_space_group_name_H-M    'P 1'
loop_
_atom_site_label
_atom_site_type_symbol
_atom_site_fract_x
_atom_site_fract_y
_atom_site_fract_z
_atom_site_occupancy
C1   C   0.206949217635021   0.435461150095065   0.472489719822121   1.0
C2   C   0.628321744270139   0.371367127124053   0.310621404862097   1.0
C3   C   0.556409598401274   0.519778929160886   0.735398083125482   1.0
C4   C   0.462862251602239   0.791993669540062   0.395678015378266   1.0
H5   H   0.647165785105024   0.856360628445785   0.415079322884886   1.0
H6   H   0.407203893975790   0.793624143672808   0.207391366406981   1.0
H7   H   0.145077612200922   0.452513489633873   0.287161074627939   1.0
H8   H   0.519407860007185   0.297449712332266   0.164163124191241   1.0
H9   H   0.438795999422254   0.638718116680366   0.852744600358605   1.0
H10   H   0.742282644573642   0.582465817821898   0.735033327890001   1.0
H11   H   0.770944374206366   0.485256584042382   0.238636568980681   1.0
H12   H   0.335331241488156   0.900324906883256   0.512196437464127   1.0
H13   H   0.547569568611166   0.329736877976927   0.789222195196949   1.0
H14   H   0.211376900969093   0.245478478521051   0.526639028049722   1.0
H15   H   0.706986909819925   0.223582276540768   0.415032919562094   1.0
H16   H   0.093511655517716   0.548324693639650   0.599240707489521   1.0
F17   F   0.321490555286644   0.053799893962754   0.921984253038431   1.0
F18   F   0.027366461384411   0.665465384827094   0.999699285394989   1.0
F19   F   0.935386324176513   0.972769473190084   0.624212165513313   1.0
N20   N   0.462670768560912   0.530433499412062   0.479464970149614   1.0
Ge21   Ge   0.977918632785574   0.013845146496934   0.968561429611825   1.0




# HOIP entry ID:                    0060
# Khazana ID:                       1910
# Organic cation source:            B.Saparov et al., Chem. Rev. 116, 4558 (2016)
# Label:                            Tetramethylammonium Germanium Fluoride
# Material class:                   Hybrid organic-inorganic perovskite ( MC_ino )
# Geometry class:                   Bulk crystalline materials ( GC_cry )
# Organic cation chemical formula:  (CH3)4N
# Number of atom types:             5
# Total number of atoms:            21
# Atom types:                       C H N  Ge F
# Number of each atom:              4 12 1  1 3
# Bandgap, HSE06 (eV):              6.3718
# Bandgap, GGA (eV):                5.0916
# Kpoint for VBM:                   0.5, 0.5, 0.5
# Kpoint for CBM:                   0.0714, 0.5, 0.5
# Dielectric constant, electronic:  2.5832
# Dielectric constant, ionic:       1.2289
# Dielectric constant, total:       3.8121
# Refractive index:                 1.6072
# Atomization energy (eV/atom):     -4.8137
# Relative energy1 (eV/atom):       -0.2326
# Relative energy2 (eV/atom):       0.1611
# Volume of the unit cell (A^3):    162.61
# Density (g/cm^3):                 2.0807
# Tool:                             VASP
# Pseudopotential:                  PAW
# Note:                             ENCUT=400eV, k-spacing_relax=0.20/Angstrom, k-spacing_bandgap=0.15/Angstrom
# Created by:                       C.Kim, T.D.Huan, S.Krishnan, R. Ramprasad