data_1
_audit_creation_method   'Generated by vasp2cif'
_cell_length_a    5.68208390395
_cell_length_b    4.98003345886
_cell_length_c    5.80665682277
_cell_angle_alpha    87.0154486927
_cell_angle_beta    87.7163263203
_cell_angle_gamma    87.4007158257

_symmetry_space_group_name_H-M    'P 1'
loop_
_atom_site_label
_atom_site_type_symbol
_atom_site_fract_x
_atom_site_fract_y
_atom_site_fract_z
_atom_site_occupancy
C1   C   0.464394031197756   0.359881950860256   0.441563511514225   1.0
C2   C   0.588748079662501   0.731387105918252   0.665233754128849   1.0
C3   C   0.311894143710426   0.417497595874025   0.845042728711583   1.0
C4   C   0.184572825080949   0.729311566239275   0.525242826293358   1.0
H5   H   0.249553161883256   0.830141375193193   0.366900201027001   1.0
H6   H   0.123658486554504   0.876420105501289   0.648420986070342   1.0
H7   H   0.516396220612656   0.474284357114918   0.284860292008787   1.0
H8   H   0.652641824640050   0.821156295560776   0.502450813304755   1.0
H9   H   0.159641983398885   0.304269469325412   0.812770637701668   1.0
H10   H   0.263207984086421   0.569601475692501   0.968194854375319   1.0
H11   H   0.522305741034756   0.883632610446170   0.779797284371242   1.0
H12   H   0.046015878598084   0.594787814544866   0.490400937322178   1.0
H13   H   0.458066832485102   0.289975262605104   0.906784950140214   1.0
H14   H   0.614055434357361   0.242451639593924   0.506282273441478   1.0
H15   H   0.723918810748863   0.601528742305455   0.746497430847555   1.0
H16   H   0.315216972579762   0.240144061592311   0.411055085214770   1.0
F17   F   0.563270062215281   0.941911492866403   0.149881245502570   1.0
F18   F   0.946748161125996   0.259198580854033   0.248114655204766   1.0
F19   F   0.839375363305194   0.170605488380765   0.802541214487590   1.0
N20   N   0.387369630589774   0.559051585138654   0.620034997320154   1.0
Ge21   Ge   0.895718372132336   0.952591424392438   0.078779321011495   1.0




# HOIP entry ID:                    0061
# Khazana ID:                       1911
# Organic cation source:            B.Saparov et al., Chem. Rev. 116, 4558 (2016)
# Label:                            Tetramethylammonium Germanium Fluoride
# Material class:                   Hybrid organic-inorganic perovskite ( MC_ino )
# Geometry class:                   Bulk crystalline materials ( GC_cry )
# Organic cation chemical formula:  (CH3)4N
# Number of atom types:             5
# Total number of atoms:            21
# Atom types:                       C H N  Ge F
# Number of each atom:              4 12 1  1 3
# Bandgap, HSE06 (eV):              6.0254
# Bandgap, GGA (eV):                4.7441
# Kpoint for VBM:                   0.5, 0.5, 0.5
# Kpoint for CBM:                   0.4286, 0.1875, 0
# Dielectric constant, electronic:  2.5853
# Dielectric constant, ionic:       1.757
# Dielectric constant, total:       4.3423
# Refractive index:                 1.6079
# Atomization energy (eV/atom):     -4.8051
# Relative energy1 (eV/atom):       -0.224
# Relative energy2 (eV/atom):       0.1698
# Volume of the unit cell (A^3):    163.8
# Density (g/cm^3):                 2.0656
# Tool:                             VASP
# Pseudopotential:                  PAW
# Note:                             ENCUT=400eV, k-spacing_relax=0.20/Angstrom, k-spacing_bandgap=0.15/Angstrom
# Created by:                       C.Kim, T.D.Huan, S.Krishnan, R. Ramprasad