data_1
_audit_creation_method   'Generated by vasp2cif'
_cell_length_a    4.74006152805
_cell_length_b    4.35343983909
_cell_length_c    4.4060543076
_cell_angle_alpha    87.8771327321
_cell_angle_beta    73.5754277189
_cell_angle_gamma    89.1115868149

_symmetry_space_group_name_H-M    'P 1'
loop_
_atom_site_label
_atom_site_type_symbol
_atom_site_fract_x
_atom_site_fract_y
_atom_site_fract_z
_atom_site_occupancy
F1   F   0.006598617969026   0.024119789398498   0.653823849956417   1.0
F2   F   0.373773780162104   0.999208690317666   0.024353829300956   1.0
F3   F   0.038714954830745   0.482172022989808   0.065979836136208   1.0
H4   H   0.279826468079335   0.338751843556430   0.519684754660275   1.0
H5   H   0.379711881062555   0.687881485674311   0.373824716092102   1.0
H6   H   0.545366804442416   0.329634534551147   0.830563889241375   1.0
H7   H   0.816092116048551   0.540186939164613   0.583896088225643   1.0
H8   H   0.511133441627557   0.711241289533483   0.810553827736747   1.0
Ge9   Ge   0.933442043677260   0.040151620883094   0.122470746815338   1.0
N10   N   0.456551063891013   0.477485232155068   0.424579450337923   1.0
N11   N   0.593518828209348   0.520196551775840   0.678879011497131   1.0




# HOIP entry ID:                    0062
# Khazana ID:                       1912
# Organic cation source:            B.Saparov et al., Chem. Rev. 116, 4558 (2016)
# Label:                            Hydrazinium Germanium Fluoride
# Material class:                   Hybrid organic-inorganic perovskite ( MC_ino )
# Geometry class:                   Bulk crystalline materials ( GC_cry )
# Organic cation chemical formula:  NH2NH3
# Number of atom types:             4
# Total number of atoms:            11
# Atom types:                        H N  Ge F
# Number of each atom:               5 2  1 3
# Bandgap, HSE06 (eV):              5.5517
# Bandgap, GGA (eV):                4.3416
# Kpoint for VBM:                   0.5, 0.5, 0.5
# Kpoint for CBM:                   0.3889, -0.2778, 0.3889
# Dielectric constant, electronic:  3.0349
# Dielectric constant, ionic:       6.8484
# Dielectric constant, total:       9.8833
# Refractive index:                 1.7421
# Atomization energy (eV/atom):     -4.6134
# Relative energy1 (eV/atom):       0.0053
# Relative energy2 (eV/atom):       0.8298
# Volume of the unit cell (A^3):    87.15
# Density (g/cm^3):                 3.0993
# Tool:                             VASP
# Pseudopotential:                  PAW
# Note:                             ENCUT=400eV, k-spacing_relax=0.20/Angstrom, k-spacing_bandgap=0.15/Angstrom
# Created by:                       C.Kim, T.D.Huan, S.Krishnan, R. Ramprasad