data_1
_audit_creation_method   'Generated by vasp2cif'
_cell_length_a    3.46942578258
_cell_length_b    4.81938397316
_cell_length_c    6.20674358465
_cell_angle_alpha    88.4334305971
_cell_angle_beta    114.218539055
_cell_angle_gamma    109.704736011

_symmetry_space_group_name_H-M    'P 1'
loop_
_atom_site_label
_atom_site_type_symbol
_atom_site_fract_x
_atom_site_fract_y
_atom_site_fract_z
_atom_site_occupancy
F1   F   0.811150766901719   0.939441017836643   0.400774665679315   1.0
F2   F   0.495702991642034   0.010289486662586   0.900374112428857   1.0
F3   F   0.902665018727696   0.618716656608569   0.092016779617616   1.0
H4   H   0.069736161166183   0.515656906352788   0.407008775490837   1.0
H5   H   0.398817391975641   0.771396506670662   0.636013513544746   1.0
H6   H   0.760083409198387   0.450485315458877   0.673777737587983   1.0
H7   H   0.992803536490023   0.180719329192676   0.687172324957928   1.0
H8   H   0.278817087977309   0.478611629900286   0.895991594754292   1.0
Ge9   Ge   0.083272985297029   0.042665336211613   0.170560720788302   1.0
N10   N   0.300666960744266   0.551329149577668   0.580842789319391   1.0
N11   N   0.059443689879700   0.402928665527583   0.720306985830689   1.0




# HOIP entry ID:                    0063
# Khazana ID:                       1913
# Organic cation source:            B.Saparov et al., Chem. Rev. 116, 4558 (2016)
# Label:                            Hydrazinium Germanium Fluoride
# Material class:                   Hybrid organic-inorganic perovskite ( MC_ino )
# Geometry class:                   Bulk crystalline materials ( GC_cry )
# Organic cation chemical formula:  NH2NH3
# Number of atom types:             4
# Total number of atoms:            11
# Atom types:                        H N  Ge F
# Number of each atom:               5 2  1 3
# Bandgap, HSE06 (eV):              5.8014
# Bandgap, GGA (eV):                4.426
# Kpoint for VBM:                   0.4583, -0.2222, 0.2222
# Kpoint for CBM:                   0, 0.5, 0.5
# Dielectric constant, electronic:  2.8755
# Dielectric constant, ionic:       4.4742
# Dielectric constant, total:       7.3497
# Refractive index:                 1.6957
# Atomization energy (eV/atom):     -4.6165
# Relative energy1 (eV/atom):       0.0023
# Relative energy2 (eV/atom):       0.8267
# Volume of the unit cell (A^3):    88.36
# Density (g/cm^3):                 3.0569
# Tool:                             VASP
# Pseudopotential:                  PAW
# Note:                             ENCUT=400eV, k-spacing_relax=0.20/Angstrom, k-spacing_bandgap=0.15/Angstrom
# Created by:                       C.Kim, T.D.Huan, S.Krishnan, R. Ramprasad