data_1
_audit_creation_method   'Generated by vasp2cif'
_cell_length_a    6.28550876792
_cell_length_b    4.61960722955
_cell_length_c    4.41806705018
_cell_angle_alpha    91.6482471848
_cell_angle_beta    45.1505351677
_cell_angle_gamma    101.957011665

_symmetry_space_group_name_H-M    'P 1'
loop_
_atom_site_label
_atom_site_type_symbol
_atom_site_fract_x
_atom_site_fract_y
_atom_site_fract_z
_atom_site_occupancy
F1   F   0.608452596381525   0.998287823363668   0.400125443224383   1.0
F2   F   0.053098723975516   0.971735298228914   0.504310580428317   1.0
F3   F   0.978881855562989   0.625762937614816   0.051428591856784   1.0
H4   H   0.491106370820596   0.717822496228465   0.188010883428561   1.0
H5   H   0.477591522241916   0.677122879569623   0.831568706680820   1.0
H6   H   0.651328870770492   0.285581094356488   0.066823827114682   1.0
H7   H   0.634828591918499   0.239525426731738   0.707858519446091   1.0
H8   H   0.896758153587740   0.532413553692031   0.605887800481568   1.0
Ge9   Ge   0.089310519997163   0.055003915261217   0.913658400422214   1.0
N10   N   0.435967653995497   0.562135065572292   0.069721074891817   1.0
N11   N   0.673155140748051   0.395759509380852   0.844926172024728   1.0




# HOIP entry ID:                    0064
# Khazana ID:                       1914
# Organic cation source:            B.Saparov et al., Chem. Rev. 116, 4558 (2016)
# Label:                            Hydrazinium Germanium Fluoride
# Material class:                   Hybrid organic-inorganic perovskite ( MC_ino )
# Geometry class:                   Bulk crystalline materials ( GC_cry )
# Organic cation chemical formula:  NH2NH3
# Number of atom types:             4
# Total number of atoms:            11
# Atom types:                        H N  Ge F
# Number of each atom:               5 2  1 3
# Bandgap, HSE06 (eV):              5.4042
# Bandgap, GGA (eV):                4.2622
# Kpoint for VBM:                   0, 0.5, 0.5
# Kpoint for CBM:                   -0.1667, 0.2778, 0.3
# Dielectric constant, electronic:  3.0212
# Dielectric constant, ionic:       9.572
# Dielectric constant, total:       12.5932
# Refractive index:                 1.7382
# Atomization energy (eV/atom):     -4.6148
# Relative energy1 (eV/atom):       0.0039
# Relative energy2 (eV/atom):       0.8284
# Volume of the unit cell (A^3):    87.69
# Density (g/cm^3):                 3.0803
# Tool:                             VASP
# Pseudopotential:                  PAW
# Note:                             ENCUT=400eV, k-spacing_relax=0.20/Angstrom, k-spacing_bandgap=0.15/Angstrom
# Created by:                       C.Kim, T.D.Huan, S.Krishnan, R. Ramprasad