data_1
_audit_creation_method   'Generated by vasp2cif'
_cell_length_a    3.43369057755
_cell_length_b    4.86544640737
_cell_length_c    6.22913839809
_cell_angle_alpha    74.7098800334
_cell_angle_beta    113.595220513
_cell_angle_gamma    111.076730294

_symmetry_space_group_name_H-M    'P 1'
loop_
_atom_site_label
_atom_site_type_symbol
_atom_site_fract_x
_atom_site_fract_y
_atom_site_fract_z
_atom_site_occupancy
F1   F   0.151873811792385   0.934942888182540   0.593041457219961   1.0
F2   F   0.555305049514196   0.993390675145456   0.091432430042637   1.0
F3   F   0.687974640343455   0.606029962535828   0.898277249707633   1.0
H4   H   0.433114938991942   0.500356156905269   0.582226530415902   1.0
H5   H   0.393602944603145   0.767932609591575   0.358866245778657   1.0
H6   H   0.706537796845346   0.442853362925625   0.318958911170768   1.0
H7   H   0.195482033720957   0.177000245038066   0.298803744320729   1.0
H8   H   0.227916524666540   0.481918423726746   0.095822091572273   1.0
Ge9   Ge   0.771458795427705   0.029155529816045   0.824550890386455   1.0
N10   N   0.258103884334581   0.548014917362529   0.407372105375075   1.0
N11   N   0.357239579759657   0.398445228770314   0.270108344009870   1.0




# HOIP entry ID:                    0065
# Khazana ID:                       1915
# Organic cation source:            B.Saparov et al., Chem. Rev. 116, 4558 (2016)
# Label:                            Hydrazinium Germanium Fluoride
# Material class:                   Hybrid organic-inorganic perovskite ( MC_ino )
# Geometry class:                   Bulk crystalline materials ( GC_cry )
# Organic cation chemical formula:  NH2NH3
# Number of atom types:             4
# Total number of atoms:            11
# Atom types:                        H N  Ge F
# Number of each atom:               5 2  1 3
# Bandgap, HSE06 (eV):              5.7238
# Bandgap, GGA (eV):                4.3593
# Kpoint for VBM:                   0.4583, -0.45, 0.3125
# Kpoint for CBM:                   0.0417, -0.25, 0.3125
# Dielectric constant, electronic:  2.8958
# Dielectric constant, ionic:       5.2368
# Dielectric constant, total:       8.1327
# Refractive index:                 1.7017
# Atomization energy (eV/atom):     -4.6111
# Relative energy1 (eV/atom):       0.0077
# Relative energy2 (eV/atom):       0.8321
# Volume of the unit cell (A^3):    88.11
# Density (g/cm^3):                 3.0656
# Tool:                             VASP
# Pseudopotential:                  PAW
# Note:                             ENCUT=400eV, k-spacing_relax=0.20/Angstrom, k-spacing_bandgap=0.15/Angstrom
# Created by:                       C.Kim, T.D.Huan, S.Krishnan, R. Ramprasad