data_1
_audit_creation_method   'Generated by vasp2cif'
_cell_length_a    4.80744423158
_cell_length_b    5.2437135686
_cell_length_c    3.86597028614
_cell_angle_alpha    75.8202861173
_cell_angle_beta    67.4122681929
_cell_angle_gamma    85.7914575142

_symmetry_space_group_name_H-M    'P 1'
loop_
_atom_site_label
_atom_site_type_symbol
_atom_site_fract_x
_atom_site_fract_y
_atom_site_fract_z
_atom_site_occupancy
F1   F   0.556506143320327   0.143879773441107   0.762391465952035   1.0
F2   F   0.107735814724080   0.902133182904720   0.575174814630039   1.0
F3   F   0.937101853764531   0.300326441127368   0.997246727526019   1.0
H4   H   0.610360779157119   0.496415773648401   0.778460605737934   1.0
H5   H   0.356954738178111   0.735088493126355   0.810324229685669   1.0
H6   H   0.143199807253289   0.341966787024127   0.236570732286779   1.0
H7   H   0.405041150659422   0.330848644948261   0.436178783660296   1.0
H8   H   0.158181900041519   0.572017047873118   0.471496955549455   1.0
Ge9   Ge   0.778451197296498   0.940430601550425   0.061380218997563   1.0
N10   N   0.488029248765663   0.622244348313927   0.940783069957789   1.0
N11   N   0.284297366839496   0.453378906042232   0.294242396016514   1.0




# HOIP entry ID:                    0066
# Khazana ID:                       1916
# Organic cation source:            B.Saparov et al., Chem. Rev. 116, 4558 (2016)
# Label:                            Hydrazinium Germanium Fluoride
# Material class:                   Hybrid organic-inorganic perovskite ( MC_ino )
# Geometry class:                   Bulk crystalline materials ( GC_cry )
# Organic cation chemical formula:  NH2NH3
# Number of atom types:             4
# Total number of atoms:            11
# Atom types:                        H N  Ge F
# Number of each atom:               5 2  1 3
# Bandgap, HSE06 (eV):              5.3582
# Bandgap, GGA (eV):                4.0646
# Kpoint for VBM:                   0.0556, 0, 0.5
# Kpoint for CBM:                   0.5, 0, 0
# Dielectric constant, electronic:  2.963
# Dielectric constant, ionic:       4.5347
# Dielectric constant, total:       7.4977
# Refractive index:                 1.7213
# Atomization energy (eV/atom):     -4.6104
# Relative energy1 (eV/atom):       0.0084
# Relative energy2 (eV/atom):       0.8328
# Volume of the unit cell (A^3):    87.22
# Density (g/cm^3):                 3.0969
# Tool:                             VASP
# Pseudopotential:                  PAW
# Note:                             ENCUT=400eV, k-spacing_relax=0.20/Angstrom, k-spacing_bandgap=0.15/Angstrom
# Created by:                       C.Kim, T.D.Huan, S.Krishnan, R. Ramprasad