data_1
_audit_creation_method   'Generated by vasp2cif'
_cell_length_a    6.33976675233
_cell_length_b    3.50840466518
_cell_length_c    4.73711442931
_cell_angle_alpha    110.292684136
_cell_angle_beta    104.7760614
_cell_angle_gamma    63.4796667702

_symmetry_space_group_name_H-M    'P 1'
loop_
_atom_site_label
_atom_site_type_symbol
_atom_site_fract_x
_atom_site_fract_y
_atom_site_fract_z
_atom_site_occupancy
F1   F   0.376800678582946   0.235975724670816   0.009705587636354   1.0
F2   F   0.177368591823658   0.041666122049506   0.389977393426229   1.0
F3   F   0.880326421000085   0.654619665628992   0.066384144704401   1.0
H4   H   0.603772280674193   0.561623396204936   0.829800102720519   1.0
H5   H   0.402750725084296   0.502960832508613   0.537998368708692   1.0
H6   H   0.874122617075436   0.305963701515751   0.463814536700291   1.0
H7   H   0.630212960086297   0.366883429556488   0.216212355101696   1.0
H8   H   0.650882181143224   0.824670801721020   0.499753292641216   1.0
Ge9   Ge   0.114145731258752   0.796214502435639   0.956888889372173   1.0
N10   N   0.579342543465607   0.374206703074286   0.615089391097762   1.0
N11   N   0.692805269805525   0.479505120633924   0.437325937890655   1.0




# HOIP entry ID:                    0067
# Khazana ID:                       1917
# Organic cation source:            B.Saparov et al., Chem. Rev. 116, 4558 (2016)
# Label:                            Hydrazinium Germanium Fluoride
# Material class:                   Hybrid organic-inorganic perovskite ( MC_ino )
# Geometry class:                   Bulk crystalline materials ( GC_cry )
# Organic cation chemical formula:  NH2NH3
# Number of atom types:             4
# Total number of atoms:            11
# Atom types:                        H N  Ge F
# Number of each atom:               5 2  1 3
# Bandgap, HSE06 (eV):              5.8647
# Bandgap, GGA (eV):                4.5123
# Kpoint for VBM:                   -0.0714, 0.5, 0.0556
# Kpoint for CBM:                   0.4286, 0, 0.4444
# Dielectric constant, electronic:  2.8891
# Dielectric constant, ionic:       4.12
# Dielectric constant, total:       7.0091
# Refractive index:                 1.6997
# Atomization energy (eV/atom):     -4.6135
# Relative energy1 (eV/atom):       0.0052
# Relative energy2 (eV/atom):       0.8297
# Volume of the unit cell (A^3):    87.79
# Density (g/cm^3):                 3.0767
# Tool:                             VASP
# Pseudopotential:                  PAW
# Note:                             ENCUT=400eV, k-spacing_relax=0.20/Angstrom, k-spacing_bandgap=0.15/Angstrom
# Created by:                       C.Kim, T.D.Huan, S.Krishnan, R. Ramprasad