data_1
_audit_creation_method   'Generated by vasp2cif'
_cell_length_a    6.02344572625
_cell_length_b    3.30781997514
_cell_length_c    4.54100677009
_cell_angle_alpha    80.5695407672
_cell_angle_beta    101.992245639
_cell_angle_gamma    88.5834724704

_symmetry_space_group_name_H-M    'P 1'
loop_
_atom_site_label
_atom_site_type_symbol
_atom_site_fract_x
_atom_site_fract_y
_atom_site_fract_z
_atom_site_occupancy
F1   F   0.394012080858524   0.182716529644502   0.979108086315222   1.0
F2   F   0.068223696452499   0.872269834417644   0.625422750232950   1.0
F3   F   0.874880109381188   0.164875674202534   0.013541212540069   1.0
H4   H   0.481067830135835   0.494645157573686   0.672211590118891   1.0
H5   H   0.674903324470151   0.824940417988692   0.740095090172758   1.0
H6   H   0.837594785403326   0.351721190361154   0.526805189423840   1.0
H7   H   0.595502144052666   0.364419464877216   0.257208235620695   1.0
H8   H   0.760523662760718   0.763515486936051   0.253955688994424   1.0
Ge9   Ge   0.159016004744188   0.782655891832370   0.066283721751553   1.0
N10   N   0.562663453664250   0.726682923875508   0.568847258519867   1.0
N11   N   0.699982908076663   0.534897428290613   0.393531176309786   1.0




# HOIP entry ID:                    0068
# Khazana ID:                       1918
# Organic cation source:            B.Saparov et al., Chem. Rev. 116, 4558 (2016)
# Label:                            Hydrazinium Germanium Fluoride
# Material class:                   Hybrid organic-inorganic perovskite ( MC_ino )
# Geometry class:                   Bulk crystalline materials ( GC_cry )
# Organic cation chemical formula:  NH2NH3
# Number of atom types:             4
# Total number of atoms:            11
# Atom types:                        H N  Ge F
# Number of each atom:               5 2  1 3
# Bandgap, HSE06 (eV):              5.3003
# Bandgap, GGA (eV):                4.1245
# Kpoint for VBM:                   0.5, 0.5, 0.5
# Kpoint for CBM:                   0, 0.5, 0.5
# Dielectric constant, electronic:  2.9719
# Dielectric constant, ionic:       5.0257
# Dielectric constant, total:       7.9976
# Refractive index:                 1.7239
# Atomization energy (eV/atom):     -4.5958
# Relative energy1 (eV/atom):       0.023
# Relative energy2 (eV/atom):       0.8474
# Volume of the unit cell (A^3):    87.14
# Density (g/cm^3):                 3.0997
# Tool:                             VASP
# Pseudopotential:                  PAW
# Note:                             ENCUT=400eV, k-spacing_relax=0.20/Angstrom, k-spacing_bandgap=0.15/Angstrom
# Created by:                       C.Kim, T.D.Huan, S.Krishnan, R. Ramprasad