data_1
_audit_creation_method   'Generated by vasp2cif'
_cell_length_a    5.22066806296
_cell_length_b    3.4834389383
_cell_length_c    5.20021074826
_cell_angle_alpha    82.2084396093
_cell_angle_beta    91.0029096394
_cell_angle_gamma    72.2297491792

_symmetry_space_group_name_H-M    'P 1'
loop_
_atom_site_label
_atom_site_type_symbol
_atom_site_fract_x
_atom_site_fract_y
_atom_site_fract_z
_atom_site_occupancy
F1   F   0.746078602321447   0.133778101557901   0.962011005851103   1.0
F2   F   0.972372234415147   0.479567725128717   0.343090351692332   1.0
F3   F   0.303351084582396   0.838259044549496   0.108371425192431   1.0
H4   H   0.240542454507882   0.058989163043549   0.537527381259814   1.0
H5   H   0.462955353647075   0.933081461774513   0.791692373149985   1.0
H6   H   0.790586899777708   0.978544824018499   0.487097149271207   1.0
H7   H   0.551243068145403   0.153345824740555   0.259846504862914   1.0
H8   H   0.546186500500546   0.432711236675153   0.508509924708406   1.0
Ge9   Ge   0.035300479350291   0.598343917201824   0.980960477116511   1.0
N10   N   0.436483980105379   0.906531828610746   0.600851522534185   1.0
N11   N   0.590259342646661   0.137546872699033   0.455841884361028   1.0




# HOIP entry ID:                    0069
# Khazana ID:                       1919
# Organic cation source:            B.Saparov et al., Chem. Rev. 116, 4558 (2016)
# Label:                            Hydrazinium Germanium Fluoride
# Material class:                   Hybrid organic-inorganic perovskite ( MC_ino )
# Geometry class:                   Bulk crystalline materials ( GC_cry )
# Organic cation chemical formula:  NH2NH3
# Number of atom types:             4
# Total number of atoms:            11
# Atom types:                        H N  Ge F
# Number of each atom:               5 2  1 3
# Bandgap, HSE06 (eV):              5.5813
# Bandgap, GGA (eV):                4.2772
# Kpoint for VBM:                   0, 0.5, 0.5
# Kpoint for CBM:                   0.375, 0, 0.25
# Dielectric constant, electronic:  2.8654
# Dielectric constant, ionic:       4.2592
# Dielectric constant, total:       7.1246
# Refractive index:                 1.6927
# Atomization energy (eV/atom):     -4.6175
# Relative energy1 (eV/atom):       0.0012
# Relative energy2 (eV/atom):       0.8257
# Volume of the unit cell (A^3):    89.05
# Density (g/cm^3):                 3.0332
# Tool:                             VASP
# Pseudopotential:                  PAW
# Note:                             ENCUT=400eV, k-spacing_relax=0.20/Angstrom, k-spacing_bandgap=0.15/Angstrom
# Created by:                       C.Kim, T.D.Huan, S.Krishnan, R. Ramprasad