data_1
_audit_creation_method   'Generated by vasp2cif'
_cell_length_a    5.13157173042
_cell_length_b    4.74932341534
_cell_length_c    3.49726940018
_cell_angle_alpha    69.0234743467
_cell_angle_beta    110.696756749
_cell_angle_gamma    96.7668425915

_symmetry_space_group_name_H-M    'P 1'
loop_
_atom_site_label
_atom_site_type_symbol
_atom_site_fract_x
_atom_site_fract_y
_atom_site_fract_z
_atom_site_occupancy
Ge1   Ge   0.918018456112982   0.922043572516984   0.667197715283415   1.0
F2   F   0.609763350654809   0.912130394972550   0.138329439546745   1.0
F3   F   0.179977439159266   0.074528456659003   0.341028250105353   1.0
F4   F   0.822402100166762   0.338809099652664   0.504677000122619   1.0
N5   N   0.398289938279774   0.479557745400783   0.743087485543747   1.0
H6   H   0.223675891012029   0.526811166705052   0.473456396599879   1.0
H7   H   0.355115517923530   0.303439943408797   0.987316497481132   1.0
H8   H   0.557782376453744   0.412446831894854   0.679279111808547   1.0
H9   H   0.456534930237147   0.663842788789331   0.842158103508524   1.0




# HOIP entry ID:                    0070
# Khazana ID:                       1920
# Organic cation source:            T.D.Huan et al., Phys. Rev. B 93,094105(2016)
# Label:                            Ammonium Germanium Fluoride
# Material class:                   Hybrid organic-inorganic perovskite ( MC_ino )
# Geometry class:                   Bulk crystalline materials ( GC_cry )
# Organic cation chemical formula:  NH4
# Number of atom types:             4
# Total number of atoms:            9
# Atom types:                        H N  Ge F
# Number of each atom:               4 1  1 3
# Bandgap, HSE06 (eV):              5.8678
# Bandgap, GGA (eV):                4.5921
# Kpoint for VBM:                   -0.125, -0.3889, 0.4231
# Kpoint for CBM:                   0.4375, 0, 0
# Dielectric constant, electronic:  2.8712
# Dielectric constant, ionic:       4.9625
# Dielectric constant, total:       7.8338
# Refractive index:                 1.6945
# Atomization energy (eV/atom):     -4.5398
# Relative energy1 (eV/atom):       -0.1338
# Relative energy2 (eV/atom):       0.8738
# Volume of the unit cell (A^3):    74.45
# Density (g/cm^3):                 3.2931
# Tool:                             VASP
# Pseudopotential:                  PAW
# Note:                             ENCUT=400eV, k-spacing_relax=0.20/Angstrom, k-spacing_bandgap=0.15/Angstrom
# Created by:                       C.Kim, T.D.Huan, S.Krishnan, R. Ramprasad