data_1
_audit_creation_method   'Generated by vasp2cif'
_cell_length_a    4.22373837671
_cell_length_b    4.35602996198
_cell_length_c    4.41327359265
_cell_angle_alpha    80.3541960457
_cell_angle_beta    82.9717450279
_cell_angle_gamma    81.9256827881

_symmetry_space_group_name_H-M    'P 1'
loop_
_atom_site_label
_atom_site_type_symbol
_atom_site_fract_x
_atom_site_fract_y
_atom_site_fract_z
_atom_site_occupancy
Ge1   Ge   0.994704039931245   0.970498479923297   0.088559829826838   1.0
F2   F   0.072752019306661   0.038132704875400   0.627875392709188   1.0
F3   F   0.504098113174880   0.031471749591302   0.042050272999485   1.0
F4   F   0.922062997640973   0.444057831124502   0.003610130031573   1.0
N5   N   0.498421226318551   0.501382802801849   0.541338355136031   1.0
H6   H   0.349782153947319   0.708120572597937   0.557319799086765   1.0
H7   H   0.362147536820694   0.317316996662526   0.587331941886996   1.0
H8   H   0.618933733538282   0.505466932296494   0.323809107034840   1.0
H9   H   0.661418179321364   0.471871930126731   0.703055171288256   1.0




# HOIP entry ID:                    0071
# Khazana ID:                       1921
# Organic cation source:            T.D.Huan et al., Phys. Rev. B 93,094105(2016)
# Label:                            Ammonium Germanium Fluoride
# Material class:                   Hybrid organic-inorganic perovskite ( MC_ino )
# Geometry class:                   Bulk crystalline materials ( GC_cry )
# Organic cation chemical formula:  NH4
# Number of atom types:             4
# Total number of atoms:            9
# Atom types:                        H N  Ge F
# Number of each atom:               4 1  1 3
# Bandgap, HSE06 (eV):              4.9157
# Bandgap, GGA (eV):                3.7949
# Kpoint for VBM:                   0.5, 0.5, 0.5
# Kpoint for CBM:                   0.5, 0.5, 0.5
# Dielectric constant, electronic:  2.9742
# Dielectric constant, ionic:       26.5739
# Dielectric constant, total:       29.5481
# Refractive index:                 1.7246
# Atomization energy (eV/atom):     -4.5557
# Relative energy1 (eV/atom):       -0.1497
# Relative energy2 (eV/atom):       0.8579
# Volume of the unit cell (A^3):    78.85
# Density (g/cm^3):                 3.1094
# Tool:                             VASP
# Pseudopotential:                  PAW
# Note:                             ENCUT=400eV, k-spacing_relax=0.20/Angstrom, k-spacing_bandgap=0.15/Angstrom
# Created by:                       C.Kim, T.D.Huan, S.Krishnan, R. Ramprasad