data_1
_audit_creation_method   'Generated by vasp2cif'
_cell_length_a    4.57565279471
_cell_length_b    5.87885635576
_cell_length_c    5.31133842515
_cell_angle_alpha    85.651369303
_cell_angle_beta    89.0304480478
_cell_angle_gamma    100.228805147

_symmetry_space_group_name_H-M    'P 1'
loop_
_atom_site_label
_atom_site_type_symbol
_atom_site_fract_x
_atom_site_fract_y
_atom_site_fract_z
_atom_site_occupancy
C1   C   0.646416052487268   0.312430361946660   0.649602586663164   1.0
C2   C   0.413596461743054   0.662811085162453   0.653117440912318   1.0
C3   C   0.392045109177467   0.441452340598360   0.277713429285505   1.0
H4   H   0.766482454134831   0.371079096282621   0.813628835948009   1.0
H5   H   0.556364939959316   0.724678173646424   0.802250597908007   1.0
H6   H   0.508487301733318   0.330708457177131   0.175207610898553   1.0
H7   H   0.358325078940098   0.592466887001436   0.162477819876983   1.0
H8   H   0.360719834927629   0.805543612239205   0.531703361390228   1.0
H9   H   0.766393102774643   0.625970375555724   0.427612076991679   1.0
H10   H   0.181678798339313   0.344462283998603   0.356031448335443   1.0
H11   H   0.437494180832701   0.199843835890476   0.706978328526837   1.0
H12   H   0.212283458486119   0.552701155625734   0.732760316410882   1.0
H13   H   0.774023506653890   0.218622587038489   0.533486598587267   1.0
F14   F   0.444456877699302   0.961422327912736   0.102751639716175   1.0
F15   F   0.923136548306800   0.662002271818480   0.041135827401156   1.0
F16   F   0.965569685948672   0.943256167075084   0.421149396390383   1.0
N17   N   0.574005101085795   0.518929088049873   0.496743742756671   1.0
Ge18   Ge   0.026621506769793   0.988679892980535   0.058508942000628   1.0




# HOIP entry ID:                    0072
# Khazana ID:                       1922
# Organic cation source:            A. Mancini et al., J. Solid State Chem. 240, 55 (2016)
# Label:                            Trimethylammonium Germanium Fluoride
# Material class:                   Hybrid organic-inorganic perovskite ( MC_ino )
# Geometry class:                   Bulk crystalline materials ( GC_cry )
# Organic cation chemical formula:  (CH3)3NH
# Number of atom types:             5
# Total number of atoms:            18
# Atom types:                       C H N  Ge F
# Number of each atom:              3 10 1  1 3
# Bandgap, HSE06 (eV):              6.0165
# Bandgap, GGA (eV):                4.7814
# Kpoint for VBM:                   0.5, 0.5, 0.5
# Kpoint for CBM:                   0.5, 0.3571, 0.3571
# Dielectric constant, electronic:  2.654
# Dielectric constant, ionic:       1.722
# Dielectric constant, total:       4.3759
# Refractive index:                 1.6291
# Atomization energy (eV/atom):     -4.7782
# Relative energy1 (eV/atom):       -0.2446
# Relative energy2 (eV/atom):       0.2593
# Volume of the unit cell (A^3):    140.13
# Density (g/cm^3):                 2.2483
# Tool:                             VASP
# Pseudopotential:                  PAW
# Note:                             ENCUT=400eV, k-spacing_relax=0.20/Angstrom, k-spacing_bandgap=0.15/Angstrom
# Created by:                       C.Kim, T.D.Huan, S.Krishnan, R. Ramprasad