data_1
_audit_creation_method   'Generated by vasp2cif'
_cell_length_a    4.89181595353
_cell_length_b    5.05130503946
_cell_length_c    5.83526248959
_cell_angle_alpha    89.2967595394
_cell_angle_beta    93.0594424194
_cell_angle_gamma    105.128924462

_symmetry_space_group_name_H-M    'P 1'
loop_
_atom_site_label
_atom_site_type_symbol
_atom_site_fract_x
_atom_site_fract_y
_atom_site_fract_z
_atom_site_occupancy
C1   C   0.627383277769443   0.266050757757281   0.518166328729484   1.0
C2   C   0.349434844319566   0.564735329727762   0.671705450966091   1.0
C3   C   0.422214851690240   0.561881536952624   0.260539710268378   1.0
H4   H   0.701003711630841   0.244686612669753   0.694084494568562   1.0
H5   H   0.454553923309271   0.572895360486879   0.839022782817656   1.0
H6   H   0.536433675916780   0.478061779236765   0.139069505491315   1.0
H7   H   0.435676286150120   0.775878531722410   0.228023710327136   1.0
H8   H   0.282334544112515   0.749461995709196   0.635725906782105   1.0
H9   H   0.736563493229618   0.689771257949300   0.510374836255223   1.0
H10   H   0.201169519925971   0.447697066400846   0.256600110370753   1.0
H11   H   0.436205814139081   0.106879273749528   0.473159893939949   1.0
H12   H   0.169728273374709   0.386199029419492   0.656742146339629   1.0
H13   H   0.789005632822160   0.265678558127206   0.398188517904211   1.0
F14   F   0.374960818050615   0.058119752945293   0.980446021315612   1.0
F15   F   0.927670233777871   0.597580374690874   0.951975946251793   1.0
F16   F   0.006925092423721   0.928522633618313   0.342095428671281   1.0
N17   N   0.551105446425276   0.534469799893184   0.495453411064776   1.0
Ge18   Ge   0.975780560932219   0.980610348943262   0.006115797936060   1.0




# HOIP entry ID:                    0073
# Khazana ID:                       1923
# Organic cation source:            A. Mancini et al., J. Solid State Chem. 240, 55 (2016)
# Label:                            Trimethylammonium Germanium Fluoride
# Material class:                   Hybrid organic-inorganic perovskite ( MC_ino )
# Geometry class:                   Bulk crystalline materials ( GC_cry )
# Organic cation chemical formula:  (CH3)3NH
# Number of atom types:             5
# Total number of atoms:            18
# Atom types:                       C H N  Ge F
# Number of each atom:              3 10 1  1 3
# Bandgap, HSE06 (eV):              5.2932
# Bandgap, GGA (eV):                4.0662
# Kpoint for VBM:                   0.5, 0.5, 0.5
# Kpoint for CBM:                   0.5, 0.5, 0.5
# Dielectric constant, electronic:  2.6666
# Dielectric constant, ionic:       1.4957
# Dielectric constant, total:       4.1623
# Refractive index:                 1.633
# Atomization energy (eV/atom):     -4.7721
# Relative energy1 (eV/atom):       -0.2385
# Relative energy2 (eV/atom):       0.2653
# Volume of the unit cell (A^3):    138.99
# Density (g/cm^3):                 2.2667
# Tool:                             VASP
# Pseudopotential:                  PAW
# Note:                             ENCUT=400eV, k-spacing_relax=0.20/Angstrom, k-spacing_bandgap=0.15/Angstrom
# Created by:                       C.Kim, T.D.Huan, S.Krishnan, R. Ramprasad