data_1
_audit_creation_method   'Generated by vasp2cif'
_cell_length_a    5.32256648003
_cell_length_b    5.35462909361
_cell_length_c    5.0861205345
_cell_angle_alpha    94.8206650399
_cell_angle_beta    95.129630196
_cell_angle_gamma    103.190567487

_symmetry_space_group_name_H-M    'P 1'
loop_
_atom_site_label
_atom_site_type_symbol
_atom_site_fract_x
_atom_site_fract_y
_atom_site_fract_z
_atom_site_occupancy
C1   C   0.393204948575288   0.375165786767198   0.728430995468855   1.0
C2   C   0.367156721244363   0.647715143860282   0.370173222757018   1.0
C3   C   0.674790770701208   0.354403746738463   0.377808999557431   1.0
H4   H   0.301594181683100   0.502748953232199   0.841171927745023   1.0
H5   H   0.291931453154071   0.773724397394062   0.504627107146689   1.0
H6   H   0.806966496887618   0.290146334830645   0.517007555387096   1.0
H7   H   0.777534623470224   0.461902145679446   0.232707113933174   1.0
H8   H   0.475523772159185   0.754108975529327   0.227899654942441   1.0
H9   H   0.683976605359724   0.670478299541422   0.638783215104112   1.0
H10   H   0.528701537285478   0.189100406639568   0.280412266756045   1.0
H11   H   0.246475000515858   0.219555010475126   0.614191469389063   1.0
H12   H   0.208075306622568   0.496955425246007   0.268602804025598   1.0
H13   H   0.525720331369932   0.296265906876712   0.851396377599585   1.0
F14   F   0.934285704033144   0.919780713245849   0.386305320624359   1.0
F15   F   0.971849152531455   0.636913901856005   0.912405751233919   1.0
F16   F   0.647695624689703   0.952764081703563   0.909843917372328   1.0
N17   N   0.542613450569029   0.525026167099483   0.533889454788792   1.0
Ge18   Ge   0.006024319148118   0.991814603284546   0.032602846168352   1.0




# HOIP entry ID:                    0074
# Khazana ID:                       1924
# Organic cation source:            A. Mancini et al., J. Solid State Chem. 240, 55 (2016)
# Label:                            Trimethylammonium Germanium Fluoride
# Material class:                   Hybrid organic-inorganic perovskite ( MC_ino )
# Geometry class:                   Bulk crystalline materials ( GC_cry )
# Organic cation chemical formula:  (CH3)3NH
# Number of atom types:             5
# Total number of atoms:            18
# Atom types:                       C H N  Ge F
# Number of each atom:              3 10 1  1 3
# Bandgap, HSE06 (eV):              6.3816
# Bandgap, GGA (eV):                5.1115
# Kpoint for VBM:                   0.5, 0.5, 0.4737
# Kpoint for CBM:                   0.3571, -0.375, 0.375
# Dielectric constant, electronic:  2.6237
# Dielectric constant, ionic:       1.3031
# Dielectric constant, total:       3.9268
# Refractive index:                 1.6198
# Atomization energy (eV/atom):     -4.7846
# Relative energy1 (eV/atom):       -0.251
# Relative energy2 (eV/atom):       0.2528
# Volume of the unit cell (A^3):    139.75
# Density (g/cm^3):                 2.2544
# Tool:                             VASP
# Pseudopotential:                  PAW
# Note:                             ENCUT=400eV, k-spacing_relax=0.20/Angstrom, k-spacing_bandgap=0.15/Angstrom
# Created by:                       C.Kim, T.D.Huan, S.Krishnan, R. Ramprasad