data_1
_audit_creation_method   'Generated by vasp2cif'
_cell_length_a    4.72949200811
_cell_length_b    5.75042951212
_cell_length_c    5.23866169073
_cell_angle_alpha    92.0186372337
_cell_angle_beta    78.8955258643
_cell_angle_gamma    90.0400062526

_symmetry_space_group_name_H-M    'P 1'
loop_
_atom_site_label
_atom_site_type_symbol
_atom_site_fract_x
_atom_site_fract_y
_atom_site_fract_z
_atom_site_occupancy
C1   C   0.514298832398781   0.559070499762291   0.324185710253555   1.0
C2   C   0.636075863613876   0.838293468436124   0.659472255040461   1.0
C3   C   0.803341993724398   0.432424172058071   0.640301862084924   1.0
H4   H   0.344628803668310   0.677454909253022   0.297665965657780   1.0
H5   H   0.860773164121661   0.867321585511574   0.573364713485457   1.0
H6   H   0.733852193614355   0.254777880039812   0.623817002154126   1.0
H7   H   0.850120312856930   0.471713850769610   0.830970452392189   1.0
H8   H   0.490749443549367   0.951098485342887   0.584267770258048   1.0
H9   H   0.381960445047939   0.545908316016436   0.726887431909995   1.0
H10   H   0.991969870534550   0.466662439455733   0.492783934466336   1.0
H11   H   0.714394815218033   0.603291977414444   0.194880922404108   1.0
H12   H   0.602780832585209   0.861857050322665   0.868933671532152   1.0
H13   H   0.457218432027328   0.378972224957484   0.292150632869435   1.0
F14   F   0.275412388070813   0.248690880260930   0.886347562732434   1.0
F15   F   0.104217011250008   0.769091239017931   0.974859462513584   1.0
F16   F   0.222625808984490   0.060988118487569   0.356944615043334   1.0
N17   N   0.566093580515727   0.590476141770689   0.597952525620927   1.0
Ge18   Ge   0.984746208218454   0.079486761122788   0.103553509581345   1.0




# HOIP entry ID:                    0076
# Khazana ID:                       1926
# Organic cation source:            A. Mancini et al., J. Solid State Chem. 240, 55 (2016)
# Label:                            Trimethylammonium Germanium Fluoride
# Material class:                   Hybrid organic-inorganic perovskite ( MC_ino )
# Geometry class:                   Bulk crystalline materials ( GC_cry )
# Organic cation chemical formula:  (CH3)3NH
# Number of atom types:             5
# Total number of atoms:            18
# Atom types:                       C H N  Ge F
# Number of each atom:              3 10 1  1 3
# Bandgap, HSE06 (eV):              6.6329
# Bandgap, GGA (eV):                5.3434
# Kpoint for VBM:                   0.5, 0.0714, 0.5
# Kpoint for CBM:                   0, 0.5, 0
# Dielectric constant, electronic:  2.6263
# Dielectric constant, ionic:       1.6373
# Dielectric constant, total:       4.2635
# Refractive index:                 1.6206
# Atomization energy (eV/atom):     -4.7689
# Relative energy1 (eV/atom):       -0.2352
# Relative energy2 (eV/atom):       0.2686
# Volume of the unit cell (A^3):    139.72
# Density (g/cm^3):                 2.2549
# Tool:                             VASP
# Pseudopotential:                  PAW
# Note:                             ENCUT=400eV, k-spacing_relax=0.20/Angstrom, k-spacing_bandgap=0.15/Angstrom
# Created by:                       C.Kim, T.D.Huan, S.Krishnan, R. Ramprasad