data_1
_audit_creation_method   'Generated by vasp2cif'
_cell_length_a    5.49835500918
_cell_length_b    4.71896710408
_cell_length_c    5.80908313773
_cell_angle_alpha    102.383977439
_cell_angle_beta    85.7274015442
_cell_angle_gamma    78.5772455156

_symmetry_space_group_name_H-M    'P 1'
loop_
_atom_site_label
_atom_site_type_symbol
_atom_site_fract_x
_atom_site_fract_y
_atom_site_fract_z
_atom_site_occupancy
C1   C   0.245531311094188   0.502193933991107   0.439315775072870   1.0
C2   C   0.612110104574182   0.729180179118565   0.454881711719618   1.0
C3   C   0.519375422016656   0.436527369434304   0.752340198968781   1.0
H4   H   0.149751568213239   0.672655136869087   0.358902255022620   1.0
H5   H   0.518480073713522   0.891798083469207   0.365443842235428   1.0
H6   H   0.378057180384888   0.319318819366539   0.795296894356561   1.0
H7   H   0.561447363569958   0.570128335179407   0.913934563615923   1.0
H8   H   0.732634808219738   0.826592229458785   0.572754001673183   1.0
H9   H   0.307900275500243   0.835836400797680   0.706034900826684   1.0
H10   H   0.687650793436786   0.285707823939957   0.654868487457547   1.0
H11   H   0.358014501208407   0.317428959163266   0.304340762366638   1.0
H12   H   0.718524368878910   0.531023381915376   0.328382260486630   1.0
H13   H   0.114079765609652   0.425241846801934   0.546248934463713   1.0
F14   F   0.591926311579491   0.030895136273702   0.019514046352278   1.0
F15   F   0.946641264443954   0.100719761444573   0.314633862121424   1.0
F16   F   0.046454086295847   0.130940496399345   0.844787433184421   1.0
N17   N   0.415027556956304   0.640699460386249   0.598412963894788   1.0
Ge18   Ge   0.936913244304037   0.858772645991052   0.013577106180917   1.0




# HOIP entry ID:                    0077
# Khazana ID:                       1927
# Organic cation source:            A. Mancini et al., J. Solid State Chem. 240, 55 (2016)
# Label:                            Trimethylammonium Germanium Fluoride
# Material class:                   Hybrid organic-inorganic perovskite ( MC_ino )
# Geometry class:                   Bulk crystalline materials ( GC_cry )
# Organic cation chemical formula:  (CH3)3NH
# Number of atom types:             5
# Total number of atoms:            18
# Atom types:                       C H N  Ge F
# Number of each atom:              3 10 1  1 3
# Bandgap, HSE06 (eV):              6.3081
# Bandgap, GGA (eV):                5.0015
# Kpoint for VBM:                   0.4737, 0.5, 0.4737
# Kpoint for CBM:                   0.2857, 0.2222, 0.1429
# Dielectric constant, electronic:  2.5856
# Dielectric constant, ionic:       1.6626
# Dielectric constant, total:       4.2482
# Refractive index:                 1.608
# Atomization energy (eV/atom):     -4.7674
# Relative energy1 (eV/atom):       -0.2338
# Relative energy2 (eV/atom):       0.27
# Volume of the unit cell (A^3):    143.22
# Density (g/cm^3):                 2.1998
# Tool:                             VASP
# Pseudopotential:                  PAW
# Note:                             ENCUT=400eV, k-spacing_relax=0.20/Angstrom, k-spacing_bandgap=0.15/Angstrom
# Created by:                       C.Kim, T.D.Huan, S.Krishnan, R. Ramprasad