data_1
_audit_creation_method   'Generated by vasp2cif'
_cell_length_a    4.48804828758
_cell_length_b    5.39109769914
_cell_length_c    5.41329302273
_cell_angle_alpha    90.6178042723
_cell_angle_beta    90.6388181987
_cell_angle_gamma    89.1459353042

_symmetry_space_group_name_H-M    'P 1'
loop_
_atom_site_label
_atom_site_type_symbol
_atom_site_fract_x
_atom_site_fract_y
_atom_site_fract_z
_atom_site_occupancy
F1   F   0.021419251251849   0.016311056419333   0.722691925999634   1.0
F2   F   0.553919668942292   0.067242186791269   0.026056246670471   1.0
F3   F   0.021000576989287   0.384611066408553   0.082002023557351   1.0
H4   H   0.338092545494490   0.891579604387431   0.602419791152023   1.0
H5   H   0.722770885717054   0.626614017714985   0.248984536050394   1.0
H6   H   0.710792929703800   0.879069167479045   0.607321132314581   1.0
H7   H   0.292507197867309   0.278308641683651   0.488926488600882   1.0
H8   H   0.709521465144086   0.530731189339988   0.854405258877939   1.0
H9   H   0.311944799568167   0.550324952220684   0.854011166172853   1.0
H10   H   0.326602729298067   0.651084508443347   0.234181635959494   1.0
H11   H   0.689201713628748   0.253492385171874   0.495016484836412   1.0
C12   C   0.509830357738103   0.547273035428688   0.741956866940967   1.0
C13   C   0.517938938006623   0.610557694363770   0.349686489647056   1.0
C14   C   0.498804463382697   0.378659257650902   0.510631594365094   1.0
Ge15   Ge   0.982359789413074   0.038859838222187   0.084228759051790   1.0
N16   N   0.521332687854446   0.777331398274306   0.578889599803091   1.0




# HOIP entry ID:                    0079
# Khazana ID:                       1929
# Organic cation source:            B. Zhou et al., Angew. Chem. Int. Ed. 50, 11441 (2011)
# Label:                            Azetidinium Germanium Fluoride
# Material class:                   Hybrid organic-inorganic perovskite ( MC_ino )
# Geometry class:                   Bulk crystalline materials ( GC_cry )
# Organic cation chemical formula:  C3H6N2
# Number of atom types:             5
# Total number of atoms:            16
# Atom types:                       C H N  Ge F
# Number of each atom:              3 8 1  1 3
# Bandgap, HSE06 (eV):              5.4627
# Bandgap, GGA (eV):                4.2387
# Kpoint for VBM:                   0.5, 0.5, 0.5
# Kpoint for CBM:                   0.0556, 0.0714, 0.5
# Dielectric constant, electronic:  2.7402
# Dielectric constant, ionic:       2.0689
# Dielectric constant, total:       4.8091
# Refractive index:                 1.6554
# Atomization energy (eV/atom):     -4.8888
# Relative energy1 (eV/atom):       -0.2422
# Relative energy2 (eV/atom):       0.3246
# Volume of the unit cell (A^3):    130.95
# Density (g/cm^3):                 2.3803
# Tool:                             VASP
# Pseudopotential:                  PAW
# Note:                             ENCUT=400eV, k-spacing_relax=0.20/Angstrom, k-spacing_bandgap=0.15/Angstrom
# Created by:                       C.Kim, T.D.Huan, S.Krishnan, R. Ramprasad