data_1
_audit_creation_method   'Generated by vasp2cif'
_cell_length_a    5.61445078849
_cell_length_b    4.84346867307
_cell_length_c    4.65868181419
_cell_angle_alpha    89.2319993488
_cell_angle_beta    83.8825735212
_cell_angle_gamma    96.8858436295

_symmetry_space_group_name_H-M    'P 1'
loop_
_atom_site_label
_atom_site_type_symbol
_atom_site_fract_x
_atom_site_fract_y
_atom_site_fract_z
_atom_site_occupancy
F1   F   0.662105385944318   0.021475610518965   0.048281652188680   1.0
F2   F   0.925279181268750   0.126970340492716   0.532732516691946   1.0
F3   F   0.971266554394615   0.510580632476540   0.972741829232500   1.0
H4   H   0.591888826966762   0.980746892292295   0.471413035756530   1.0
H5   H   0.613363806175209   0.433625668615518   0.710676216145387   1.0
H6   H   0.453296360822698   0.858196492759501   0.788487464447295   1.0
H7   H   0.483021076108202   0.453132332154108   0.091781939342468   1.0
H8   H   0.116954854449648   0.641741415681542   0.559448599285318   1.0
H9   H   0.246500638882502   0.836905400791090   0.242629599492091   1.0
H10   H   0.789967403855477   0.604978696779239   0.405325650829031   1.0
H11   H   0.314396966871504   0.247358899906334   0.376185565504226   1.0
C12   C   0.277284141362311   0.694016124132989   0.410305477598829   1.0
C13   C   0.610051279221352   0.551773402144364   0.512792372363843   1.0
C14   C   0.414400659782166   0.448314543577156   0.317903808619001   1.0
Ge15   Ge   0.998826028271499   0.121827441191884   0.932497559992972   1.0
N16   N   0.486346835622975   0.813656106485696   0.574726712509982   1.0




# HOIP entry ID:                    0080
# Khazana ID:                       1930
# Organic cation source:            B. Zhou et al., Angew. Chem. Int. Ed. 50, 11441 (2011)
# Label:                            Azetidinium Germanium Fluoride
# Material class:                   Hybrid organic-inorganic perovskite ( MC_ino )
# Geometry class:                   Bulk crystalline materials ( GC_cry )
# Organic cation chemical formula:  C3H6N2
# Number of atom types:             5
# Total number of atoms:            16
# Atom types:                       C H N  Ge F
# Number of each atom:              3 8 1  1 3
# Bandgap, HSE06 (eV):              5.8716
# Bandgap, GGA (eV):                4.6297
# Kpoint for VBM:                   0.5, 0.5, 0.5
# Kpoint for CBM:                   0.5, 0.25, 0.2778
# Dielectric constant, electronic:  2.816
# Dielectric constant, ionic:       2.005
# Dielectric constant, total:       4.821
# Refractive index:                 1.6781
# Atomization energy (eV/atom):     -4.8828
# Relative energy1 (eV/atom):       -0.2363
# Relative energy2 (eV/atom):       0.3305
# Volume of the unit cell (A^3):    125.01
# Density (g/cm^3):                 2.4934
# Tool:                             VASP
# Pseudopotential:                  PAW
# Note:                             ENCUT=400eV, k-spacing_relax=0.20/Angstrom, k-spacing_bandgap=0.15/Angstrom
# Created by:                       C.Kim, T.D.Huan, S.Krishnan, R. Ramprasad