data_1
_audit_creation_method   'Generated by vasp2cif'
_cell_length_a    4.72260016439
_cell_length_b    4.74996260814
_cell_length_c    5.82238221177
_cell_angle_alpha    90.0652694036
_cell_angle_beta    89.1248297525
_cell_angle_gamma    99.2535529962

_symmetry_space_group_name_H-M    'P 1'
loop_
_atom_site_label
_atom_site_type_symbol
_atom_site_fract_x
_atom_site_fract_y
_atom_site_fract_z
_atom_site_occupancy
F1   F   0.584639865669949   0.022692864030660   0.010168735941725   1.0
F2   F   0.015809172142760   0.996008207402888   0.301750186914646   1.0
F3   F   0.033544843939211   0.476284557278511   0.026211642441744   1.0
H4   H   0.292985257992271   0.573813824736277   0.218059498817716   1.0
H5   H   0.812478615371404   0.404480332767498   0.358835015249674   1.0
H6   H   0.586166154937054   0.802427927838586   0.284253125912990   1.0
H7   H   0.517468542917712   0.371081796245228   0.819264745083061   1.0
H8   H   0.332960947108539   0.890726587605236   0.630719406246719   1.0
H9   H   0.123255186836332   0.546421864571116   0.602950754710378   1.0
H10   H   0.467696492965303   0.195278617577415   0.405124977016584   1.0
H11   H   0.759857293533258   0.670634672512627   0.722486149216287   1.0
C12   C   0.335302337548420   0.670791032302859   0.585348878422245   1.0
C13   C   0.602687392941867   0.397709800021438   0.435840299529282   1.0
C14   C   0.571605618815127   0.519130674994820   0.678957444792204   1.0
Ge15   Ge   0.998997334136334   0.063225774833597   0.976240275268125   1.0
N16   N   0.445794943144548   0.629271465281228   0.342358864436683   1.0




# HOIP entry ID:                    0081
# Khazana ID:                       1931
# Organic cation source:            B. Zhou et al., Angew. Chem. Int. Ed. 50, 11441 (2011)
# Label:                            Azetidinium Germanium Fluoride
# Material class:                   Hybrid organic-inorganic perovskite ( MC_ino )
# Geometry class:                   Bulk crystalline materials ( GC_cry )
# Organic cation chemical formula:  C3H6N2
# Number of atom types:             5
# Total number of atoms:            16
# Atom types:                       C H N  Ge F
# Number of each atom:              3 8 1  1 3
# Bandgap, HSE06 (eV):              5.5683
# Bandgap, GGA (eV):                4.3571
# Kpoint for VBM:                   0.5, 0.5, 0.5
# Kpoint for CBM:                   -0.25, 0.25, 0.5
# Dielectric constant, electronic:  2.7631
# Dielectric constant, ionic:       2.288
# Dielectric constant, total:       5.0511
# Refractive index:                 1.6623
# Atomization energy (eV/atom):     -4.8848
# Relative energy1 (eV/atom):       -0.2383
# Relative energy2 (eV/atom):       0.3285
# Volume of the unit cell (A^3):    128.89
# Density (g/cm^3):                 2.4184
# Tool:                             VASP
# Pseudopotential:                  PAW
# Note:                             ENCUT=400eV, k-spacing_relax=0.20/Angstrom, k-spacing_bandgap=0.15/Angstrom
# Created by:                       C.Kim, T.D.Huan, S.Krishnan, R. Ramprasad