data_1
_audit_creation_method   'Generated by vasp2cif'
_cell_length_a    6.92408151366
_cell_length_b    4.5656276023
_cell_length_c    4.41354291117
_cell_angle_alpha    105.794712886
_cell_angle_beta    78.615619602
_cell_angle_gamma    87.6655974265

_symmetry_space_group_name_H-M    'P 1'
loop_
_atom_site_label
_atom_site_type_symbol
_atom_site_fract_x
_atom_site_fract_y
_atom_site_fract_z
_atom_site_occupancy
F1   F   0.802729001931894   0.689003718966610   0.166659720105351   1.0
F2   F   0.011193173614672   0.058789664146438   0.865873787492468   1.0
F3   F   0.202301195654265   0.631739441703608   0.076410683610149   1.0
H4   H   0.681890747576062   0.084462801001472   0.013309434662119   1.0
H5   H   0.260653189607517   0.217695688863841   0.026562769761732   1.0
H6   H   0.369762280866198   0.868282278986342   0.950185241457795   1.0
H7   H   0.486736426205027   0.859276804105491   0.400511019518696   1.0
H8   H   0.314518783586777   0.191091753249687   0.503494587292501   1.0
H9   H   0.592038186382922   0.516114408298961   0.631782987373654   1.0
H10   H   0.757839974705981   0.178617880023225   0.484121748769219   1.0
H11   H   0.531851273033219   0.440822479623662   0.169435474121073   1.0
C12   C   0.440546751487084   0.087059866714846   0.561800101297834   1.0
C13   C   0.572809908900311   0.235810408791650   0.971658019806974   1.0
C14   C   0.614213000407396   0.279675447679978   0.633893613998737   1.0
Ge15   Ge   0.007584322398920   0.620235287026937   0.794063562249306   1.0
N16   N   0.388841783641702   0.077822070817319   0.909287248482386   1.0




# HOIP entry ID:                    0083
# Khazana ID:                       1933
# Organic cation source:            B. Zhou et al., Angew. Chem. Int. Ed. 50, 11441 (2011)
# Label:                            Azetidinium Germanium Fluoride
# Material class:                   Hybrid organic-inorganic perovskite ( MC_ino )
# Geometry class:                   Bulk crystalline materials ( GC_cry )
# Organic cation chemical formula:  C3H6N2
# Number of atom types:             5
# Total number of atoms:            16
# Atom types:                       C H N  Ge F
# Number of each atom:              3 8 1  1 3
# Bandgap, HSE06 (eV):              5.2447
# Bandgap, GGA (eV):                4.0504
# Kpoint for VBM:                   0.5, 0.5, 0.5
# Kpoint for CBM:                   -0.25, 0.2222, 0.05
# Dielectric constant, electronic:  2.7136
# Dielectric constant, ionic:       3.2964
# Dielectric constant, total:       6.01
# Refractive index:                 1.6473
# Atomization energy (eV/atom):     -4.8662
# Relative energy1 (eV/atom):       -0.2197
# Relative energy2 (eV/atom):       0.3471
# Volume of the unit cell (A^3):    130.95
# Density (g/cm^3):                 2.3803
# Tool:                             VASP
# Pseudopotential:                  PAW
# Note:                             ENCUT=400eV, k-spacing_relax=0.20/Angstrom, k-spacing_bandgap=0.15/Angstrom
# Created by:                       C.Kim, T.D.Huan, S.Krishnan, R. Ramprasad