data_1
_audit_creation_method   'Generated by vasp2cif'
_cell_length_a    6.92701125009
_cell_length_b    4.42960628174
_cell_length_c    4.42837619193
_cell_angle_alpha    102.72830045
_cell_angle_beta    81.9481111966
_cell_angle_gamma    87.4519689059

_symmetry_space_group_name_H-M    'P 1'
loop_
_atom_site_label
_atom_site_type_symbol
_atom_site_fract_x
_atom_site_fract_y
_atom_site_fract_z
_atom_site_occupancy
F1   F   0.173877743693211   0.622418445171782   0.832560294884907   1.0
F2   F   0.971926672788967   0.175514882203309   0.122749462350413   1.0
F3   F   0.769149549490074   0.693495080586871   0.917759771250893   1.0
H4   H   0.434398007297865   0.901508503024132   0.891469571706892   1.0
H5   H   0.598958908767997   0.482170912229435   0.109021852708686   1.0
H6   H   0.710376372158208   0.133463430826659   0.032730526098526   1.0
H7   H   0.667902389396147   0.115007812084151   0.545600593598408   1.0
H8   H   0.505483663077086   0.457877805469671   0.641078330836429   1.0
H9   H   0.226614496294282   0.145034651744531   0.550710572442405   1.0
H10   H   0.382142254089629   0.800573391371849   0.417679074588889   1.0
H11   H   0.291429549088995   0.262414734734783   0.030078587032151   1.0
C12   C   0.542483810831861   0.231702683421638   0.484792970744344   1.0
C13   C   0.399182076697812   0.104462342748903   0.079919621099833   1.0
C14   C   0.364612753523232   0.043560113708381   0.410122278582406   1.0
Ge15   Ge   0.977789239624229   0.738044288537360   0.188023242645336   1.0
N16   N   0.584112513180408   0.263550922136453   0.147993249429554   1.0




# HOIP entry ID:                    0084
# Khazana ID:                       1934
# Organic cation source:            B. Zhou et al., Angew. Chem. Int. Ed. 50, 11441 (2011)
# Label:                            Azetidinium Germanium Fluoride
# Material class:                   Hybrid organic-inorganic perovskite ( MC_ino )
# Geometry class:                   Bulk crystalline materials ( GC_cry )
# Organic cation chemical formula:  C3H6N2
# Number of atom types:             5
# Total number of atoms:            16
# Atom types:                       C H N  Ge F
# Number of each atom:              3 8 1  1 3
# Bandgap, HSE06 (eV):              5.1762
# Bandgap, GGA (eV):                3.925
# Kpoint for VBM:                   0.5, 0.5, 0.5
# Kpoint for CBM:                   -0.25, 0.2222, 0
# Dielectric constant, electronic:  2.7358
# Dielectric constant, ionic:       3.8329
# Dielectric constant, total:       6.5687
# Refractive index:                 1.654
# Atomization energy (eV/atom):     -4.8613
# Relative energy1 (eV/atom):       -0.2148
# Relative energy2 (eV/atom):       0.352
# Volume of the unit cell (A^3):    130.83
# Density (g/cm^3):                 2.3825
# Tool:                             VASP
# Pseudopotential:                  PAW
# Note:                             ENCUT=400eV, k-spacing_relax=0.20/Angstrom, k-spacing_bandgap=0.15/Angstrom
# Created by:                       C.Kim, T.D.Huan, S.Krishnan, R. Ramprasad