data_1
_audit_creation_method   'Generated by vasp2cif'
_cell_length_a    6.31819994548
_cell_length_b    4.85053235611
_cell_length_c    4.45124624983
_cell_angle_alpha    87.2370996939
_cell_angle_beta    96.8941576923
_cell_angle_gamma    80.3779358661

_symmetry_space_group_name_H-M    'P 1'
loop_
_atom_site_label
_atom_site_type_symbol
_atom_site_fract_x
_atom_site_fract_y
_atom_site_fract_z
_atom_site_occupancy
F1   F   0.784816927393500   0.659098300676789   0.191577254608269   1.0
F2   F   0.045719245034320   0.269737203878435   0.928725740660916   1.0
F3   F   0.207130595735116   0.689398626404106   0.225066531189960   1.0
H4   H   0.719874230344416   0.170932524431031   0.113777685333325   1.0
H5   H   0.288578420825665   0.045656960551092   0.957954464989839   1.0
H6   H   0.529247367984503   0.820961649354636   0.987706540597394   1.0
H7   H   0.539557853502210   0.909631321648973   0.465864312810815   1.0
H8   H   0.283992198544802   0.141853398416274   0.447348350876766   1.0
H9   H   0.479391092853469   0.529063708226893   0.558689482377105   1.0
H10   H   0.732587198209821   0.301002840205818   0.576161004101408   1.0
H11   H   0.466159661496917   0.403075828437437   0.095410700399839   1.0
C12   C   0.448056517860436   0.083894705583205   0.563892188184191   1.0
C13   C   0.565453345968528   0.250636072148907   0.979950519916343   1.0
C14   C   0.571375906715872   0.325739625026074   0.642965122391651   1.0
Ge15   Ge   0.985988361794249   0.674818074534940   0.898798043886487   1.0
N16   N   0.442761075736143   0.011479160475410   0.899372057675741   1.0




# HOIP entry ID:                    0085
# Khazana ID:                       1935
# Organic cation source:            B. Zhou et al., Angew. Chem. Int. Ed. 50, 11441 (2011)
# Label:                            Azetidinium Germanium Fluoride
# Material class:                   Hybrid organic-inorganic perovskite ( MC_ino )
# Geometry class:                   Bulk crystalline materials ( GC_cry )
# Organic cation chemical formula:  C3H6N2
# Number of atom types:             5
# Total number of atoms:            16
# Atom types:                       C H N  Ge F
# Number of each atom:              3 8 1  1 3
# Bandgap, HSE06 (eV):              5.5509
# Bandgap, GGA (eV):                4.3197
# Kpoint for VBM:                   0.5, 0.5, 0.5
# Kpoint for CBM:                   0, 0.5, 0
# Dielectric constant, electronic:  2.6251
# Dielectric constant, ionic:       2.6198
# Dielectric constant, total:       5.245
# Refractive index:                 1.6202
# Atomization energy (eV/atom):     -4.8756
# Relative energy1 (eV/atom):       -0.2291
# Relative energy2 (eV/atom):       0.3377
# Volume of the unit cell (A^3):    133.2
# Density (g/cm^3):                 2.3401
# Tool:                             VASP
# Pseudopotential:                  PAW
# Note:                             ENCUT=400eV, k-spacing_relax=0.20/Angstrom, k-spacing_bandgap=0.15/Angstrom
# Created by:                       C.Kim, T.D.Huan, S.Krishnan, R. Ramprasad