data_1
_audit_creation_method   'Generated by vasp2cif'
_cell_length_a    6.72603192466
_cell_length_b    3.72912596131
_cell_length_c    5.47233122857
_cell_angle_alpha    70.3149735806
_cell_angle_beta    96.1914689214
_cell_angle_gamma    103.019224964

_symmetry_space_group_name_H-M    'P 1'
loop_
_atom_site_label
_atom_site_type_symbol
_atom_site_fract_x
_atom_site_fract_y
_atom_site_fract_z
_atom_site_occupancy
F1   F   0.836880580153348   0.757182818531511   0.230353474261705   1.0
F2   F   0.122876782061539   0.325618140279644   0.430107532959696   1.0
F3   F   0.223444071549963   0.007353904361473   0.025883944952049   1.0
H4   H   0.538842801462607   0.395345822959115   0.865205740800015   1.0
H5   H   0.272858646426570   0.633434583850423   0.560020010793139   1.0
H6   H   0.281989054160505   0.969338174160704   0.700519926501720   1.0
H7   H   0.527443063966835   0.044350461443059   0.272965513455077   1.0
H8   H   0.509191890664653   0.414565742641656   0.397837203268132   1.0
H9   H   0.788456275315163   0.225446742657049   0.724695679501359   1.0
H10   H   0.809936685536243   0.876914925641742   0.582432267394104   1.0
H11   H   0.519475099432434   0.742611124764458   0.009920512573501   1.0
C12   C   0.532167788243846   0.120922206052427   0.447574783579640   1.0
C13   C   0.538983399429725   0.698428271024468   0.829799784682194   1.0
C14   C   0.703272093371524   0.998765769402603   0.649723032073481   1.0
Ge15   Ge   0.007518024240142   0.531808103112411   0.087004543056651   1.0
N16   N   0.370563743984945   0.834563209117171   0.633046050147499   1.0




# HOIP entry ID:                    0086
# Khazana ID:                       1936
# Organic cation source:            B. Zhou et al., Angew. Chem. Int. Ed. 50, 11441 (2011)
# Label:                            Azetidinium Germanium Fluoride
# Material class:                   Hybrid organic-inorganic perovskite ( MC_ino )
# Geometry class:                   Bulk crystalline materials ( GC_cry )
# Organic cation chemical formula:  C3H6N2
# Number of atom types:             5
# Total number of atoms:            16
# Atom types:                       C H N  Ge F
# Number of each atom:              3 8 1  1 3
# Bandgap, HSE06 (eV):              5.5193
# Bandgap, GGA (eV):                4.2628
# Kpoint for VBM:                   0, 0.5, 0
# Kpoint for CBM:                   0, 0, 0
# Dielectric constant, electronic:  2.7751
# Dielectric constant, ionic:       2.1649
# Dielectric constant, total:       4.94
# Refractive index:                 1.6659
# Atomization energy (eV/atom):     -4.8796
# Relative energy1 (eV/atom):       -0.2331
# Relative energy2 (eV/atom):       0.3337
# Volume of the unit cell (A^3):    125.84
# Density (g/cm^3):                 2.477
# Tool:                             VASP
# Pseudopotential:                  PAW
# Note:                             ENCUT=400eV, k-spacing_relax=0.20/Angstrom, k-spacing_bandgap=0.15/Angstrom
# Created by:                       C.Kim, T.D.Huan, S.Krishnan, R. Ramprasad