data_1
_audit_creation_method   'Generated by vasp2cif'
_cell_length_a    5.02999486446
_cell_length_b    3.80439882934
_cell_length_c    7.11714258252
_cell_angle_alpha    105.772160859
_cell_angle_beta    87.3673361118
_cell_angle_gamma    106.133730492

_symmetry_space_group_name_H-M    'P 1'
loop_
_atom_site_label
_atom_site_type_symbol
_atom_site_fract_x
_atom_site_fract_y
_atom_site_fract_z
_atom_site_occupancy
F1   F   0.796521179311434   0.799329312060436   0.858536678351534   1.0
F2   F   0.546797985350594   0.282959385230960   0.127701415048314   1.0
F3   F   0.957479334530518   0.048775241277369   0.249501380684919   1.0
H4   H   0.161133279145048   0.472261692774488   0.535951938885425   1.0
H5   H   0.498304145556183   0.665589532882159   0.306359585358919   1.0
H6   H   0.350947668599709   0.992754789972210   0.291154265619198   1.0
H7   H   0.768521737705591   0.098187051552898   0.589741039506109   1.0
H8   H   0.636004743688872   0.448106776560323   0.539050554567773   1.0
H9   H   0.254650014430794   0.308621050279619   0.759437318432525   1.0
H10   H   0.398404958804825   0.979484655486893   0.820334641630829   1.0
H11   H   0.990860663404902   0.780496009445102   0.481090511136358   1.0
C12   C   0.583210622981952   0.169169268014059   0.562644228389587   1.0
C13   C   0.183911218071678   0.758165054031409   0.529279624460308   1.0
C14   C   0.346321944448888   0.076295140153690   0.700879881157483   1.0
Ge15   Ge   0.925643157050636   0.290194508947877   0.044846515900609   1.0
N16   N   0.410947346918412   0.871820531330449   0.389220420869918   1.0




# HOIP entry ID:                    0087
# Khazana ID:                       1937
# Organic cation source:            B. Zhou et al., Angew. Chem. Int. Ed. 50, 11441 (2011)
# Label:                            Azetidinium Germanium Fluoride
# Material class:                   Hybrid organic-inorganic perovskite ( MC_ino )
# Geometry class:                   Bulk crystalline materials ( GC_cry )
# Organic cation chemical formula:  C3H6N2
# Number of atom types:             5
# Total number of atoms:            16
# Atom types:                       C H N  Ge F
# Number of each atom:              3 8 1  1 3
# Bandgap, HSE06 (eV):              5.6525
# Bandgap, GGA (eV):                4.3679
# Kpoint for VBM:                   0.5, 0.5, 0.5
# Kpoint for CBM:                   -0.0625, 0, 0.0833
# Dielectric constant, electronic:  2.7821
# Dielectric constant, ionic:       2.295
# Dielectric constant, total:       5.0772
# Refractive index:                 1.668
# Atomization energy (eV/atom):     -4.8769
# Relative energy1 (eV/atom):       -0.2304
# Relative energy2 (eV/atom):       0.3364
# Volume of the unit cell (A^3):    125.84
# Density (g/cm^3):                 2.477
# Tool:                             VASP
# Pseudopotential:                  PAW
# Note:                             ENCUT=400eV, k-spacing_relax=0.20/Angstrom, k-spacing_bandgap=0.15/Angstrom
# Created by:                       C.Kim, T.D.Huan, S.Krishnan, R. Ramprasad