data_1
_audit_creation_method   'Generated by vasp2cif'
_cell_length_a    5.0776058583
_cell_length_b    3.78071928208
_cell_length_c    7.07438509916
_cell_angle_alpha    74.9037846999
_cell_angle_beta    95.5598855233
_cell_angle_gamma    106.285813066

_symmetry_space_group_name_H-M    'P 1'
loop_
_atom_site_label
_atom_site_type_symbol
_atom_site_fract_x
_atom_site_fract_y
_atom_site_fract_z
_atom_site_occupancy
F1   F   0.812671033038065   0.863140455511690   0.838625387094076   1.0
F2   F   0.563117007135560   0.075272524176420   0.109491082746672   1.0
F3   F   0.972349859972290   0.722273678135259   0.231458905214183   1.0
H4   H   0.169936317600076   0.853980836564006   0.522062116616397   1.0
H5   H   0.504572787014190   0.274471402829107   0.287525582046648   1.0
H6   H   0.359640729491147   0.619504281361884   0.272401357589970   1.0
H7   H   0.779167008876847   0.435762328240820   0.565613789802761   1.0
H8   H   0.646609720057562   0.836141491695855   0.516502376261215   1.0
H9   H   0.276728640707475   0.473279151767009   0.746491784590724   1.0
H10   H   0.418362590691501   0.081795496851989   0.802406048440552   1.0
H11   H   0.006376644749047   0.223230863699584   0.469854033829065   1.0
C12   C   0.594823170157397   0.531309967948935   0.541647785651989   1.0
C13   C   0.196840520408152   0.149595176186033   0.515036052384389   1.0
C14   C   0.363929740275260   0.298807068973218   0.684515073938478   1.0
Ge15   Ge   0.939151974105812   0.169603391475945   0.026071493228912   1.0
N16   N   0.419832255719605   0.401261884582318   0.370787130563890   1.0




# HOIP entry ID:                    0088
# Khazana ID:                       1938
# Organic cation source:            B. Zhou et al., Angew. Chem. Int. Ed. 50, 11441 (2011)
# Label:                            Azetidinium Germanium Fluoride
# Material class:                   Hybrid organic-inorganic perovskite ( MC_ino )
# Geometry class:                   Bulk crystalline materials ( GC_cry )
# Organic cation chemical formula:  C3H6N2
# Number of atom types:             5
# Total number of atoms:            16
# Atom types:                       C H N  Ge F
# Number of each atom:              3 8 1  1 3
# Bandgap, HSE06 (eV):              5.632
# Bandgap, GGA (eV):                4.3494
# Kpoint for VBM:                   0.5, 0.5, 0
# Kpoint for CBM:                   -0.0625, 0, 0.0833
# Dielectric constant, electronic:  2.7835
# Dielectric constant, ionic:       2.4491
# Dielectric constant, total:       5.2326
# Refractive index:                 1.6684
# Atomization energy (eV/atom):     -4.8767
# Relative energy1 (eV/atom):       -0.2302
# Relative energy2 (eV/atom):       0.3366
# Volume of the unit cell (A^3):    125.82
# Density (g/cm^3):                 2.4774
# Tool:                             VASP
# Pseudopotential:                  PAW
# Note:                             ENCUT=400eV, k-spacing_relax=0.20/Angstrom, k-spacing_bandgap=0.15/Angstrom
# Created by:                       C.Kim, T.D.Huan, S.Krishnan, R. Ramprasad