data_1
_audit_creation_method   'Generated by vasp2cif'
_cell_length_a    3.63950631662
_cell_length_b    4.89008549111
_cell_length_c    7.2693625175
_cell_angle_alpha    86.8127864236
_cell_angle_beta    92.7883013597
_cell_angle_gamma    97.0521976369

_symmetry_space_group_name_H-M    'P 1'
loop_
_atom_site_label
_atom_site_type_symbol
_atom_site_fract_x
_atom_site_fract_y
_atom_site_fract_z
_atom_site_occupancy
F1   F   0.313394394390421   0.617585512068146   0.075177218648577   1.0
F2   F   0.831098584923751   0.930516108007602   0.872682911476339   1.0
F3   F   0.315398960822158   0.609805167600065   0.665648277422150   1.0
H4   H   0.736196473913175   0.957056324807716   0.164778649142555   1.0
H5   H   0.039208536111502   0.810053711726034   0.539254085927467   1.0
H6   H   0.606691656265859   0.748700279635031   0.463139277019550   1.0
H7   H   0.466834878521482   0.161445582153732   0.568178590198535   1.0
H8   H   0.931697405884421   0.226225970336422   0.646558482547263   1.0
H9   H   0.107739680239000   0.463943507105213   0.353429794323432   1.0
H10   H   0.643956914714515   0.413530073706227   0.266569108898388   1.0
H11   H   0.206868308490634   0.012610921787065   0.233951147618342   1.0
C12   C   0.751228570116005   0.171460919717816   0.529129038848133   1.0
C13   C   0.929461397289941   0.038519742856487   0.271449051134070   1.0
C14   C   0.860628405185984   0.317605616096650   0.343492830029952   1.0
Ge15   Ge   0.668589351493111   0.549875175828127   0.894158420247358   1.0
N16   N   0.832276481638011   0.895975386567656   0.460523116517876   1.0




# HOIP entry ID:                    0089
# Khazana ID:                       1939
# Organic cation source:            B. Zhou et al., Angew. Chem. Int. Ed. 50, 11441 (2011)
# Label:                            Azetidinium Germanium Fluoride
# Material class:                   Hybrid organic-inorganic perovskite ( MC_ino )
# Geometry class:                   Bulk crystalline materials ( GC_cry )
# Organic cation chemical formula:  C3H6N2
# Number of atom types:             5
# Total number of atoms:            16
# Atom types:                       C H N  Ge F
# Number of each atom:              3 8 1  1 3
# Bandgap, HSE06 (eV):              5.4908
# Bandgap, GGA (eV):                4.2206
# Kpoint for VBM:                   0.5, 0.5, 0
# Kpoint for CBM:                   0.0455, 0.5, 0.5
# Dielectric constant, electronic:  2.7574
# Dielectric constant, ionic:       2.915
# Dielectric constant, total:       5.6725
# Refractive index:                 1.6606
# Atomization energy (eV/atom):     -4.8568
# Relative energy1 (eV/atom):       -0.2102
# Relative energy2 (eV/atom):       0.3566
# Volume of the unit cell (A^3):    128.08
# Density (g/cm^3):                 2.4337
# Tool:                             VASP
# Pseudopotential:                  PAW
# Note:                             ENCUT=400eV, k-spacing_relax=0.20/Angstrom, k-spacing_bandgap=0.15/Angstrom
# Created by:                       C.Kim, T.D.Huan, S.Krishnan, R. Ramprasad