data_1
_audit_creation_method   'Generated by vasp2cif'
_cell_length_a    6.42436272487
_cell_length_b    5.18347095224
_cell_length_c    4.56750032714
_cell_angle_alpha    60.2208614171
_cell_angle_beta    85.1404228968
_cell_angle_gamma    82.233176167

_symmetry_space_group_name_H-M    'P 1'
loop_
_atom_site_label
_atom_site_type_symbol
_atom_site_fract_x
_atom_site_fract_y
_atom_site_fract_z
_atom_site_occupancy
F1   F   0.129507886458882   0.535036279194649   0.063328669490168   1.0
F2   F   0.884320850783254   0.070947832421297   0.823830288151989   1.0
F3   F   0.690026707245359   0.582440757004733   0.070336665859280   1.0
H4   H   0.383015629094167   0.880876034391861   0.932192213418986   1.0
H5   H   0.453066995489387   0.452251276562833   0.872212301469872   1.0
H6   H   0.641148111147643   0.186887700904727   0.889745382928290   1.0
H7   H   0.621009680887816   0.962057122919248   0.487794545710322   1.0
H8   H   0.435777218734650   0.274115922228937   0.417815900470259   1.0
H9   H   0.142485831537073   0.997096964827278   0.461407333732083   1.0
H10   H   0.316439044662566   0.683953792704465   0.513488746005279   1.0
H11   H   0.188695893360134   0.194202049646748   0.838550313874251   1.0
C12   C   0.476235811850430   0.093051179415220   0.364166385708820   1.0
C13   C   0.318989217337666   0.050896356404977   0.994464036237495   1.0
C14   C   0.290450055925270   0.925844151582716   0.376761030485831   1.0
Ge15   Ge   0.903326358666192   0.677451385271958   0.252951959590675   1.0
N16   N   0.494194706819549   0.227971194518346   0.982634226866494   1.0




# HOIP entry ID:                    0090
# Khazana ID:                       1940
# Organic cation source:            B. Zhou et al., Angew. Chem. Int. Ed. 50, 11441 (2011)
# Label:                            Azetidinium Germanium Fluoride
# Material class:                   Hybrid organic-inorganic perovskite ( MC_ino )
# Geometry class:                   Bulk crystalline materials ( GC_cry )
# Organic cation chemical formula:  C3H6N2
# Number of atom types:             5
# Total number of atoms:            16
# Atom types:                       C H N  Ge F
# Number of each atom:              3 8 1  1 3
# Bandgap, HSE06 (eV):              5.6887
# Bandgap, GGA (eV):                4.4508
# Kpoint for VBM:                   0, 0.0556, 0.5
# Kpoint for CBM:                   0.5, 0.5, 0
# Dielectric constant, electronic:  2.7114
# Dielectric constant, ionic:       2.0469
# Dielectric constant, total:       4.7583
# Refractive index:                 1.6466
# Atomization energy (eV/atom):     -4.8652
# Relative energy1 (eV/atom):       -0.2187
# Relative energy2 (eV/atom):       0.3481
# Volume of the unit cell (A^3):    130.78
# Density (g/cm^3):                 2.3834
# Tool:                             VASP
# Pseudopotential:                  PAW
# Note:                             ENCUT=400eV, k-spacing_relax=0.20/Angstrom, k-spacing_bandgap=0.15/Angstrom
# Created by:                       C.Kim, T.D.Huan, S.Krishnan, R. Ramprasad