data_1
_audit_creation_method   'Generated by vasp2cif'
_cell_length_a    6.36918224253
_cell_length_b    4.62116850022
_cell_length_c    4.58167939884
_cell_angle_alpha    98.7104849239
_cell_angle_beta    86.4232527496
_cell_angle_gamma    86.0702979768

_symmetry_space_group_name_H-M    'P 1'
loop_
_atom_site_label
_atom_site_type_symbol
_atom_site_fract_x
_atom_site_fract_y
_atom_site_fract_z
_atom_site_occupancy
F1   F   0.893849379770764   0.252294828071115   0.514199375916931   1.0
F2   F   0.120780791167917   0.715072658826685   0.625611221714529   1.0
F3   F   0.683479735673401   0.776832662781928   0.686821610124042   1.0
H4   H   0.348310397992847   0.028437593207542   0.633832373798782   1.0
H5   H   0.556387639281844   0.527198162529963   0.881059317095819   1.0
H6   H   0.660820886469160   0.184055474518758   0.815494933632962   1.0
H7   H   0.618163649926714   0.159092538397601   0.320107051131757   1.0
H8   H   0.421961346780627   0.463475405367987   0.372276118801374   1.0
H9   H   0.157314550229600   0.099954932439473   0.248933572493641   1.0
H10   H   0.358683252927072   0.829399723505560   0.097088950419895   1.0
H11   H   0.206785148168187   0.360903333874127   0.814722380525701   1.0
C12   C   0.482073417888259   0.258974049391448   0.233217950832092   1.0
C13   C   0.325194420000848   0.185987279380001   0.832510775241595   1.0
C14   C   0.308393057131241   0.061577012294684   0.123148924980427   1.0
Ge15   Ge   0.903171423674912   0.632393354372468   0.377908347292788   1.0
N16   N   0.533050902916592   0.317340991040638   0.918417095997846   1.0




# HOIP entry ID:                    0091
# Khazana ID:                       1941
# Organic cation source:            B. Zhou et al., Angew. Chem. Int. Ed. 50, 11441 (2011)
# Label:                            Azetidinium Germanium Fluoride
# Material class:                   Hybrid organic-inorganic perovskite ( MC_ino )
# Geometry class:                   Bulk crystalline materials ( GC_cry )
# Organic cation chemical formula:  C3H6N2
# Number of atom types:             5
# Total number of atoms:            16
# Atom types:                       C H N  Ge F
# Number of each atom:              3 8 1  1 3
# Bandgap, HSE06 (eV):              6.1035
# Bandgap, GGA (eV):                4.8179
# Kpoint for VBM:                   0.5, 0.5, 0.5
# Kpoint for CBM:                   -0.25, 0.3333, 0
# Dielectric constant, electronic:  2.6569
# Dielectric constant, ionic:       2.8608
# Dielectric constant, total:       5.5178
# Refractive index:                 1.63
# Atomization energy (eV/atom):     -4.8742
# Relative energy1 (eV/atom):       -0.2277
# Relative energy2 (eV/atom):       0.3391
# Volume of the unit cell (A^3):    132.62
# Density (g/cm^3):                 2.3504
# Tool:                             VASP
# Pseudopotential:                  PAW
# Note:                             ENCUT=400eV, k-spacing_relax=0.20/Angstrom, k-spacing_bandgap=0.15/Angstrom
# Created by:                       C.Kim, T.D.Huan, S.Krishnan, R. Ramprasad