data_1
_audit_creation_method   'Generated by vasp2cif'
_cell_length_a    4.53791848304
_cell_length_b    6.33845745557
_cell_length_c    4.54741963778
_cell_angle_alpha    91.0284270781
_cell_angle_beta    74.2158815335
_cell_angle_gamma    92.0853586602

_symmetry_space_group_name_H-M    'P 1'
loop_
_atom_site_label
_atom_site_type_symbol
_atom_site_fract_x
_atom_site_fract_y
_atom_site_fract_z
_atom_site_occupancy
F1   F   0.327831243080908   0.765234697450133   0.057537815224698   1.0
F2   F   0.836781607532544   0.766146237102660   0.546174491327271   1.0
F3   F   0.866097906753915   0.029038643496889   0.078795607823579   1.0
H4   H   0.634084974493099   0.070653296976133   0.848411632311858   1.0
H5   H   0.320068602725577   0.886366099793840   0.524899739060977   1.0
H6   H   0.223483276299191   0.541569169546655   0.462646146594217   1.0
H7   H   0.599672473576888   0.470450862920700   0.833957280397271   1.0
H8   H   0.076602967827611   0.166302584356131   0.295520035731208   1.0
C9   C   0.486163518206879   0.362311701277974   0.714855077032027   1.0
C10   C   0.345991278374562   0.051783293363158   0.557617219811704   1.0
C11   C   0.300364416685547   0.397772095009465   0.531244343957262   1.0
Ge12   Ge   0.893322874538462   0.719175782481223   0.114300224619242   1.0
N13   N   0.510502216323658   0.146416629663683   0.726464203211314   1.0
N14   N   0.215892643581164   0.201038906561280   0.435226182897324   1.0




# HOIP entry ID:                    0092
# Khazana ID:                       1942
# Organic cation source:            B.Saparov et al., Chem. Rev. 116, 4558 (2016)
# Label:                            Imidazolium Germanium Fluoride
# Material class:                   Hybrid organic-inorganic perovskite ( MC_ino )
# Geometry class:                   Bulk crystalline materials ( GC_cry )
# Organic cation chemical formula:  C3H5N2
# Number of atom types:             5
# Total number of atoms:            14
# Atom types:                       C H N  Ge F
# Number of each atom:              3 5 2  1 3
# Bandgap, HSE06 (eV):              5.039
# Bandgap, GGA (eV):                3.8566
# Kpoint for VBM:                   -0.3889, 0.5, 0.3889
# Kpoint for CBM:                   0.5, 0, 0.5
# Dielectric constant, electronic:  2.986
# Dielectric constant, ionic:       2.1818
# Dielectric constant, total:       5.1678
# Refractive index:                 1.728
# Atomization energy (eV/atom):     -5.4112
# Relative energy1 (eV/atom):       -0.0824
# Relative energy2 (eV/atom):       0.5653
# Volume of the unit cell (A^3):    125.78
# Density (g/cm^3):                 2.6232
# Tool:                             VASP
# Pseudopotential:                  PAW
# Note:                             ENCUT=400eV, k-spacing_relax=0.20/Angstrom, k-spacing_bandgap=0.15/Angstrom
# Created by:                       C.Kim, T.D.Huan, S.Krishnan, R. Ramprasad