data_1
_audit_creation_method   'Generated by vasp2cif'
_cell_length_a    4.65914891281
_cell_length_b    6.15963122266
_cell_length_c    4.51474352443
_cell_angle_alpha    94.052619845
_cell_angle_beta    75.9247414191
_cell_angle_gamma    83.9361262647

_symmetry_space_group_name_H-M    'P 1'
loop_
_atom_site_label
_atom_site_type_symbol
_atom_site_fract_x
_atom_site_fract_y
_atom_site_fract_z
_atom_site_occupancy
F1   F   0.696956955736056   0.788867582732315   0.949770864351869   1.0
F2   F   0.146056663112233   0.815031972545313   0.438998025208278   1.0
F3   F   0.112621868560517   0.072838452601204   0.945012869983010   1.0
H4   H   0.334111945338997   0.109708347891747   0.199652774253693   1.0
H5   H   0.621326717598741   0.944774424607928   0.566506179211174   1.0
H6   H   0.857335130493453   0.580099646245209   0.435693576742537   1.0
H7   H   0.450220424896919   0.496799494601355   0.104385528187372   1.0
H8   H   0.928920075822468   0.223965326180903   0.705260119514250   1.0
C9   C   0.544068740545050   0.397689714476144   0.250407176181952   1.0
C10   C   0.622561044736187   0.104951203320134   0.491708179543046   1.0
C11   C   0.745336445949249   0.439114168107082   0.414608683927298   1.0
Ge12   Ge   0.123954480366748   0.754584878952862   0.861989354663926   1.0
N13   N   0.469443933827222   0.190450344770291   0.304618039352910   1.0
N14   N   0.788265573016176   0.254594442967544   0.566128628878644   1.0




# HOIP entry ID:                    0093
# Khazana ID:                       1943
# Organic cation source:            B.Saparov et al., Chem. Rev. 116, 4558 (2016)
# Label:                            Imidazolium Germanium Fluoride
# Material class:                   Hybrid organic-inorganic perovskite ( MC_ino )
# Geometry class:                   Bulk crystalline materials ( GC_cry )
# Organic cation chemical formula:  C3H5N2
# Number of atom types:             5
# Total number of atoms:            14
# Atom types:                       C H N  Ge F
# Number of each atom:              3 5 2  1 3
# Bandgap, HSE06 (eV):              5.2294
# Bandgap, GGA (eV):                3.9539
# Kpoint for VBM:                   -0.3889, -0.3333, 0.3889
# Kpoint for CBM:                   0.5, 0.5, 0
# Dielectric constant, electronic:  2.994
# Dielectric constant, ionic:       2.3614
# Dielectric constant, total:       5.3554
# Refractive index:                 1.7303
# Atomization energy (eV/atom):     -5.4095
# Relative energy1 (eV/atom):       -0.0808
# Relative energy2 (eV/atom):       0.567
# Volume of the unit cell (A^3):    124.35
# Density (g/cm^3):                 2.6533
# Tool:                             VASP
# Pseudopotential:                  PAW
# Note:                             ENCUT=400eV, k-spacing_relax=0.20/Angstrom, k-spacing_bandgap=0.15/Angstrom
# Created by:                       C.Kim, T.D.Huan, S.Krishnan, R. Ramprasad