data_1
_audit_creation_method   'Generated by vasp2cif'
_cell_length_a    4.76695201977
_cell_length_b    5.69262898844
_cell_length_c    4.77816888699
_cell_angle_alpha    98.2512332792
_cell_angle_beta    102.255472924
_cell_angle_gamma    96.384932966

_symmetry_space_group_name_H-M    'P 1'
loop_
_atom_site_label
_atom_site_type_symbol
_atom_site_fract_x
_atom_site_fract_y
_atom_site_fract_z
_atom_site_occupancy
F1   F   0.925459416609779   0.836295665909950   0.402775077754219   1.0
F2   F   0.509312877748410   0.847814983032691   0.910752302133275   1.0
F3   F   0.912578974290490   0.544661933285583   0.890635872025746   1.0
H4   H   0.123058927897123   0.518671696852561   0.625707653249346   1.0
H5   H   0.281010273129997   0.135542291305421   0.770507033332011   1.0
H6   H   0.743518585385314   0.330118744034663   0.154918439340229   1.0
H7   H   0.380852526673600   0.657041469945989   0.240029745665810   1.0
H8   H   0.654923998475254   0.021928989354065   0.478539222183876   1.0
C9   C   0.410498220332956   0.499398919514365   0.332377966143833   1.0
C10   C   0.352637033838439   0.229862781808653   0.615226428841943   1.0
C11   C   0.589848290573193   0.335035875461600   0.289110486732509   1.0
Ge12   Ge   0.923458311378359   0.880292466274670   0.002316171578422   1.0
N13   N   0.263321478987454   0.428718196971577   0.532844485149522   1.0
N14   N   0.548941084679685   0.167675986248317   0.466109115869086   1.0




# HOIP entry ID:                    0095
# Khazana ID:                       1945
# Organic cation source:            B.Saparov et al., Chem. Rev. 116, 4558 (2016)
# Label:                            Imidazolium Germanium Fluoride
# Material class:                   Hybrid organic-inorganic perovskite ( MC_ino )
# Geometry class:                   Bulk crystalline materials ( GC_cry )
# Organic cation chemical formula:  C3H5N2
# Number of atom types:             5
# Total number of atoms:            14
# Atom types:                       C H N  Ge F
# Number of each atom:              3 5 2  1 3
# Bandgap, HSE06 (eV):              5.1263
# Bandgap, GGA (eV):                3.8969
# Kpoint for VBM:                   0.5, 0.0714, 0.5
# Kpoint for CBM:                   0, 0.5, 0.5
# Dielectric constant, electronic:  2.9519
# Dielectric constant, ionic:       1.9409
# Dielectric constant, total:       4.8928
# Refractive index:                 1.7181
# Atomization energy (eV/atom):     -5.408
# Relative energy1 (eV/atom):       -0.0792
# Relative energy2 (eV/atom):       0.5686
# Volume of the unit cell (A^3):    124.04
# Density (g/cm^3):                 2.66
# Tool:                             VASP
# Pseudopotential:                  PAW
# Note:                             ENCUT=400eV, k-spacing_relax=0.20/Angstrom, k-spacing_bandgap=0.15/Angstrom
# Created by:                       C.Kim, T.D.Huan, S.Krishnan, R. Ramprasad