data_1
_audit_creation_method   'Generated by vasp2cif'
_cell_length_a    4.66893042419
_cell_length_b    3.41550358858
_cell_length_c    7.90987366684
_cell_angle_alpha    94.2727276558
_cell_angle_beta    86.4182187811
_cell_angle_gamma    91.7475518817

_symmetry_space_group_name_H-M    'P 1'
loop_
_atom_site_label
_atom_site_type_symbol
_atom_site_fract_x
_atom_site_fract_y
_atom_site_fract_z
_atom_site_occupancy
F1   F   0.070761799757869   0.387205326629313   0.205505010373996   1.0
F2   F   0.384088794290929   0.822160546267268   0.971805304153367   1.0
F3   F   0.995450304358460   0.323385101079475   0.826111806207744   1.0
H4   H   0.392845228140509   0.065809343997648   0.772037536112680   1.0
H5   H   0.875846225577237   0.649691585277608   0.350045093128821   1.0
H6   H   0.465774340598243   0.005057029818024   0.233216322436582   1.0
H7   H   0.139788952059128   0.289682003035331   0.518675372295326   1.0
H8   H   0.839421599556753   0.687730704551530   0.676301414396739   1.0
C9   C   0.490997760226005   0.983910915007899   0.366149694821784   1.0
C10   C   0.327862825189886   0.118283723298117   0.506275337688709   1.0
C11   C   0.699388632625201   0.820114761692363   0.595673391229096   1.0
Ge12   Ge   0.977160188624992   0.739978095316329   0.017961816217985   1.0
N13   N   0.721888921173464   0.802481891745569   0.425678905981575   1.0
N14   N   0.461974427821301   0.014518972283510   0.647062994955599   1.0




# HOIP entry ID:                    0096
# Khazana ID:                       1946
# Organic cation source:            B.Saparov et al., Chem. Rev. 116, 4558 (2016)
# Label:                            Imidazolium Germanium Fluoride
# Material class:                   Hybrid organic-inorganic perovskite ( MC_ino )
# Geometry class:                   Bulk crystalline materials ( GC_cry )
# Organic cation chemical formula:  C3H5N2
# Number of atom types:             5
# Total number of atoms:            14
# Atom types:                       C H N  Ge F
# Number of each atom:              3 5 2  1 3
# Bandgap, HSE06 (eV):              4.8319
# Bandgap, GGA (eV):                3.389
# Kpoint for VBM:                   0.5, 0.5, 0
# Kpoint for CBM:                   0, 0, 0
# Dielectric constant, electronic:  2.9355
# Dielectric constant, ionic:       3.3169
# Dielectric constant, total:       6.2524
# Refractive index:                 1.7133
# Atomization energy (eV/atom):     -5.3954
# Relative energy1 (eV/atom):       -0.0666
# Relative energy2 (eV/atom):       0.5811
# Volume of the unit cell (A^3):    125.5
# Density (g/cm^3):                 2.629
# Tool:                             VASP
# Pseudopotential:                  PAW
# Note:                             ENCUT=400eV, k-spacing_relax=0.20/Angstrom, k-spacing_bandgap=0.15/Angstrom
# Created by:                       C.Kim, T.D.Huan, S.Krishnan, R. Ramprasad