data_1
_audit_creation_method   'Generated by vasp2cif'
_cell_length_a    4.68505747088
_cell_length_b    3.53171230536
_cell_length_c    8.20954214828
_cell_angle_alpha    112.594924061
_cell_angle_beta    93.7043997995
_cell_angle_gamma    84.6921431227

_symmetry_space_group_name_H-M    'P 1'
loop_
_atom_site_label
_atom_site_type_symbol
_atom_site_fract_x
_atom_site_fract_y
_atom_site_fract_z
_atom_site_occupancy
F1   F   0.036151115937493   0.165217556322475   0.795107786261660   1.0
F2   F   0.402124975492377   0.707320203263130   0.025322182058204   1.0
F3   F   0.983350268779091   0.514561720451120   0.189486030622938   1.0
H4   H   0.590682766507932   0.277959332410333   0.225697467232621   1.0
H5   H   0.197620947216606   0.339839485865980   0.665985990734015   1.0
H6   H   0.583827729320660   0.847959516921733   0.782014393486584   1.0
H7   H   0.871315617999421   0.774048040762104   0.484244816395446   1.0
H8   H   0.186680405735665   0.997891854393245   0.331710084782145   1.0
C9   C   0.555508491162563   0.656474780074831   0.645554333393918   1.0
C10   C   0.695746795714960   0.619662417871915   0.499295288525929   1.0
C11   C   0.329136449605691   0.223691074421460   0.411059544813895   1.0
Ge12   Ge   0.987043178861299   0.715251725481423   0.994949281815579   1.0
N13   N   0.328649348413734   0.409373548636317   0.586751303506524   1.0
N14   N   0.550091909252501   0.350028743124021   0.354781496370577   1.0




# HOIP entry ID:                    0097
# Khazana ID:                       1947
# Organic cation source:            B.Saparov et al., Chem. Rev. 116, 4558 (2016)
# Label:                            Imidazolium Germanium Fluoride
# Material class:                   Hybrid organic-inorganic perovskite ( MC_ino )
# Geometry class:                   Bulk crystalline materials ( GC_cry )
# Organic cation chemical formula:  C3H5N2
# Number of atom types:             5
# Total number of atoms:            14
# Atom types:                       C H N  Ge F
# Number of each atom:              3 5 2  1 3
# Bandgap, HSE06 (eV):              4.5246
# Bandgap, GGA (eV):                3.1585
# Kpoint for VBM:                   0.5, 0.5, 0
# Kpoint for CBM:                   0, 0, 0
# Dielectric constant, electronic:  2.9764
# Dielectric constant, ionic:       2.8216
# Dielectric constant, total:       5.798
# Refractive index:                 1.7252
# Atomization energy (eV/atom):     -5.3929
# Relative energy1 (eV/atom):       -0.0641
# Relative energy2 (eV/atom):       0.5837
# Volume of the unit cell (A^3):    124.81
# Density (g/cm^3):                 2.6436
# Tool:                             VASP
# Pseudopotential:                  PAW
# Note:                             ENCUT=400eV, k-spacing_relax=0.20/Angstrom, k-spacing_bandgap=0.15/Angstrom
# Created by:                       C.Kim, T.D.Huan, S.Krishnan, R. Ramprasad