data_1
_audit_creation_method   'Generated by vasp2cif'
_cell_length_a    5.70777866916
_cell_length_b    5.6924646398
_cell_length_c    6.05549611143
_cell_angle_alpha    79.1353782185
_cell_angle_beta    89.518398641
_cell_angle_gamma    97.6754983243

_symmetry_space_group_name_H-M    'P 1'
loop_
_atom_site_label
_atom_site_type_symbol
_atom_site_fract_x
_atom_site_fract_y
_atom_site_fract_z
_atom_site_occupancy
C1   C   0.461353664160526   0.579619512406779   0.332088505672736   1.0
C2   C   0.576723206003756   0.413966686308413   0.208332078939904   1.0
H3   H   0.766452919080585   0.473323571301229   0.178274998495631   1.0
H4   H   0.494007901063895   0.414159140728771   0.046803517773824   1.0
H5   H   0.563425240921575   0.417204435508893   0.653575141297011   1.0
H6   H   0.508427178384679   0.702006977250271   0.642175152761155   1.0
H7   H   0.551154618101535   0.227967782234771   0.302303859559316   1.0
H8   H   0.481074304111793   0.765086171271868   0.239377430797205   1.0
H9   H   0.274269760149970   0.516575428485190   0.372000513328963   1.0
H10   H   0.758138834798082   0.650764484193708   0.525276153256328   1.0
Cl11   Cl   0.464030110067299   0.016208131968661   0.815191004927655   1.0
Cl12   Cl   0.059793906873985   0.445853558369556   0.808983346704416   1.0
Cl13   Cl   0.029991733226730   0.985291248777834   0.298200204060080   1.0
N14   N   0.580479959511614   0.588007367791334   0.554327031684501   1.0
Ge15   Ge   0.025386663543962   0.012555503402666   0.894111060741224   1.0




# HOIP entry ID:                    0098
# Khazana ID:                       1948
# Organic cation source:            B.Saparov et al., Chem. Rev. 116, 4558 (2016)
# Label:                            Ethylammonium Germanium Chloride
# Material class:                   Hybrid organic-inorganic perovskite ( MC_ino )
# Geometry class:                   Bulk crystalline materials ( GC_cry )
# Organic cation chemical formula:  CH3CH2NH3
# Number of atom types:             5
# Total number of atoms:            15
# Atom types:                       C H N  Ge Cl
# Number of each atom:              2 8 1  1 3
# Bandgap, HSE06 (eV):              3.6864
# Bandgap, GGA (eV):                2.8063
# Kpoint for VBM:                   0.5, 0.5, 0.5
# Kpoint for CBM:                   0.5, 0.5, 0.5
# Dielectric constant, electronic:  3.2264
# Dielectric constant, ionic:       3.4337
# Dielectric constant, total:       6.6601
# Refractive index:                 1.7962
# Atomization energy (eV/atom):     -4.395
# Relative energy1 (eV/atom):       0.0882
# Relative energy2 (eV/atom):       0.281
# Volume of the unit cell (A^3):    191.38
# Density (g/cm^3):                 1.9528
# Tool:                             VASP
# Pseudopotential:                  PAW
# Note:                             ENCUT=400eV, k-spacing_relax=0.20/Angstrom, k-spacing_bandgap=0.15/Angstrom
# Created by:                       C.Kim, T.D.Huan, S.Krishnan, R. Ramprasad