data_1
_audit_creation_method   'Generated by vasp2cif'
_cell_length_a    5.78095485697
_cell_length_b    4.17288276922
_cell_length_c    8.33203203435
_cell_angle_alpha    95.1833466229
_cell_angle_beta    93.3072042491
_cell_angle_gamma    100.414796608

_symmetry_space_group_name_H-M    'P 1'
loop_
_atom_site_label
_atom_site_type_symbol
_atom_site_fract_x
_atom_site_fract_y
_atom_site_fract_z
_atom_site_occupancy
C1   C   0.577529331559511   0.723192852987587   0.415375822075148   1.0
C2   C   0.556850417372843   0.525085793694799   0.559936827784810   1.0
H3   H   0.716110644201514   0.424514826169478   0.583821574189095   1.0
H4   H   0.535161739655955   0.684916069449883   0.666727858463474   1.0
H5   H   0.759175939301031   0.414223069900743   0.268896921492640   1.0
H6   H   0.606899066354536   0.640650546446508   0.162891045740515   1.0
H7   H   0.418089054170181   0.822507859416596   0.390540371948632   1.0
H8   H   0.403432335203050   0.326351561923566   0.542301662502815   1.0
H9   H   0.731629045624963   0.919982204631012   0.431415172934479   1.0
H10   H   0.461939300505385   0.320655962791854   0.240194635428111   1.0
Cl11   Cl   0.499613277060874   0.909046923650990   0.964253219260939   1.0
Cl12   Cl   0.063329874089995   0.157674850529361   0.208886781702049   1.0
Cl13   Cl   0.046181691240697   0.113905820183682   0.728848681031465   1.0
N14   N   0.605984384542872   0.509758408502968   0.262937009770169   1.0
Ge15   Ge   0.071613899116699   0.762243249721003   0.941142415675664   1.0




# HOIP entry ID:                    0100
# Khazana ID:                       1950
# Organic cation source:            B.Saparov et al., Chem. Rev. 116, 4558 (2016)
# Label:                            Ethylammonium Germanium Chloride
# Material class:                   Hybrid organic-inorganic perovskite ( MC_ino )
# Geometry class:                   Bulk crystalline materials ( GC_cry )
# Organic cation chemical formula:  CH3CH2NH3
# Number of atom types:             5
# Total number of atoms:            15
# Atom types:                       C H N  Ge Cl
# Number of each atom:              2 8 1  1 3
# Bandgap, HSE06 (eV):              4.7232
# Bandgap, GGA (eV):                3.6961
# Kpoint for VBM:                   -0.2857, -0.25, 0.4
# Kpoint for CBM:                   0.0714, 0, 0.5
# Dielectric constant, electronic:  3.0561
# Dielectric constant, ionic:       2.869
# Dielectric constant, total:       5.9251
# Refractive index:                 1.7482
# Atomization energy (eV/atom):     -4.3829
# Relative energy1 (eV/atom):       0.1003
# Relative energy2 (eV/atom):       0.2931
# Volume of the unit cell (A^3):    196.31
# Density (g/cm^3):                 1.9038
# Tool:                             VASP
# Pseudopotential:                  PAW
# Note:                             ENCUT=400eV, k-spacing_relax=0.20/Angstrom, k-spacing_bandgap=0.15/Angstrom
# Created by:                       C.Kim, T.D.Huan, S.Krishnan, R. Ramprasad