data_1
_audit_creation_method   'Generated by vasp2cif'
_cell_length_a    8.15123113077
_cell_length_b    4.18977875641
_cell_length_c    5.77201698277
_cell_angle_alpha    79.746712992
_cell_angle_beta    93.9827042427
_cell_angle_gamma    87.8363708184

_symmetry_space_group_name_H-M    'P 1'
loop_
_atom_site_label
_atom_site_type_symbol
_atom_site_fract_x
_atom_site_fract_y
_atom_site_fract_z
_atom_site_occupancy
C1   C   0.466068133229538   0.549201238719104   0.403521703875623   1.0
C2   C   0.405255224926667   0.682024647698222   0.613535162675486   1.0
H3   H   0.384462971783997   0.485418952312616   0.758743406879241   1.0
H4   H   0.493675440095332   0.839066370337983   0.681939700287582   1.0
H5   H   0.648866469716967   0.234362370092901   0.623215326960167   1.0
H6   H   0.725826194482044   0.563406898826251   0.482340842964148   1.0
H7   H   0.387688332151856   0.362639351928705   0.354009213331507   1.0
H8   H   0.288751338003715   0.821285125710165   0.560127115633840   1.0
H9   H   0.473312295516075   0.737001613231522   0.248071793546644   1.0
H10   H   0.674672362556948   0.272283051313846   0.331613572612213   1.0
Cl11   Cl   0.952278260644064   0.806409321314277   0.580179240313033   1.0
Cl12   Cl   0.716449315568756   0.081043234203080   0.012564158137775   1.0
Cl13   Cl   0.192527459050006   0.085767729361345   0.026515625688936   1.0
N14   N   0.638934370085772   0.393325314420631   0.463176845120055   1.0
Ge15   Ge   0.979141832188239   0.695534780529383   0.009296291973647   1.0




# HOIP entry ID:                    0101
# Khazana ID:                       1951
# Organic cation source:            B.Saparov et al., Chem. Rev. 116, 4558 (2016)
# Label:                            Ethylammonium Germanium Chloride
# Material class:                   Hybrid organic-inorganic perovskite ( MC_ino )
# Geometry class:                   Bulk crystalline materials ( GC_cry )
# Organic cation chemical formula:  CH3CH2NH3
# Number of atom types:             5
# Total number of atoms:            15
# Atom types:                       C H N  Ge Cl
# Number of each atom:              2 8 1  1 3
# Bandgap, HSE06 (eV):              4.6706
# Bandgap, GGA (eV):                3.6695
# Kpoint for VBM:                   -0.3, 0.3, 0.5
# Kpoint for CBM:                   0.5, 0, 0.3571
# Dielectric constant, electronic:  3.1228
# Dielectric constant, ionic:       3.0731
# Dielectric constant, total:       6.1959
# Refractive index:                 1.7671
# Atomization energy (eV/atom):     -4.3863
# Relative energy1 (eV/atom):       0.0969
# Relative energy2 (eV/atom):       0.2897
# Volume of the unit cell (A^3):    193.26
# Density (g/cm^3):                 1.9338
# Tool:                             VASP
# Pseudopotential:                  PAW
# Note:                             ENCUT=400eV, k-spacing_relax=0.20/Angstrom, k-spacing_bandgap=0.15/Angstrom
# Created by:                       C.Kim, T.D.Huan, S.Krishnan, R. Ramprasad