data_1
_audit_creation_method   'Generated by vasp2cif'
_cell_length_a    5.9192245361
_cell_length_b    4.24518999937
_cell_length_c    7.89133911747
_cell_angle_alpha    95.6358394969
_cell_angle_beta    99.1239540083
_cell_angle_gamma    94.7212432777

_symmetry_space_group_name_H-M    'P 1'
loop_
_atom_site_label
_atom_site_type_symbol
_atom_site_fract_x
_atom_site_fract_y
_atom_site_fract_z
_atom_site_occupancy
C1   C   0.405756267751613   0.843953033827212   0.615550037088973   1.0
C2   C   0.575802145012830   0.635710801623048   0.546710801419280   1.0
H3   H   0.489422724314807   0.450324793650779   0.445960998942070   1.0
H4   H   0.695327840105982   0.784631341502212   0.489144968259325   1.0
H5   H   0.141619516798656   0.475507403512623   0.615724788935438   1.0
H6   H   0.127768286357430   0.796504644386609   0.753935051981053   1.0
H7   H   0.493062338698529   0.032168743402039   0.713732200910250   1.0
H8   H   0.674448255388832   0.525713008015067   0.650375340844221   1.0
H9   H   0.301462295325805   0.946220937863544   0.512174834421046   1.0
H10   H   0.326504491581382   0.553604378810178   0.806254210571488   1.0
Cl11   Cl   0.514781605079385   0.546586190507796   0.080217022006479   1.0
Cl12   Cl   0.929128493414083   0.144904816623722   0.874413198900278   1.0
Cl13   Cl   0.960889665520767   0.220514446420637   0.356327411105887   1.0
N14   N   0.239136291290514   0.651917231540061   0.703010379799636   1.0
Ge15   Ge   0.927489783359420   0.583268228314395   0.120988754814448   1.0




# HOIP entry ID:                    0102
# Khazana ID:                       1952
# Organic cation source:            B.Saparov et al., Chem. Rev. 116, 4558 (2016)
# Label:                            Ethylammonium Germanium Chloride
# Material class:                   Hybrid organic-inorganic perovskite ( MC_ino )
# Geometry class:                   Bulk crystalline materials ( GC_cry )
# Organic cation chemical formula:  CH3CH2NH3
# Number of atom types:             5
# Total number of atoms:            15
# Atom types:                       C H N  Ge Cl
# Number of each atom:              2 8 1  1 3
# Bandgap, HSE06 (eV):              4.5001
# Bandgap, GGA (eV):                3.5185
# Kpoint for VBM:                   0.5, 0.2778, 0.5
# Kpoint for CBM:                   -0.4286, 0, 0.4
# Dielectric constant, electronic:  3.1383
# Dielectric constant, ionic:       3.7289
# Dielectric constant, total:       6.8672
# Refractive index:                 1.7715
# Atomization energy (eV/atom):     -4.3852
# Relative energy1 (eV/atom):       0.098
# Relative energy2 (eV/atom):       0.2909
# Volume of the unit cell (A^3):    193.87
# Density (g/cm^3):                 1.9277
# Tool:                             VASP
# Pseudopotential:                  PAW
# Note:                             ENCUT=400eV, k-spacing_relax=0.20/Angstrom, k-spacing_bandgap=0.15/Angstrom
# Created by:                       C.Kim, T.D.Huan, S.Krishnan, R. Ramprasad