data_1
_audit_creation_method   'Generated by vasp2cif'
_cell_length_a    5.56035017258
_cell_length_b    4.67371943396
_cell_length_c    7.61004729476
_cell_angle_alpha    85.6700295084
_cell_angle_beta    84.9577314463
_cell_angle_gamma    74.7033201837

_symmetry_space_group_name_H-M    'P 1'
loop_
_atom_site_label
_atom_site_type_symbol
_atom_site_fract_x
_atom_site_fract_y
_atom_site_fract_z
_atom_site_occupancy
C1   C   0.463579374575026   0.543276049486948   0.534370056704248   1.0
C2   C   0.649235521330006   0.730829791256198   0.492979013100545   1.0
H3   H   0.828664043768669   0.596397267883795   0.440373845982798   1.0
H4   H   0.581425098661576   0.907370624752730   0.393419863980846   1.0
H5   H   0.537037901693509   0.360360573422113   0.281869209497991   1.0
H6   H   0.291555155103907   0.654565285964857   0.292560445432684   1.0
H7   H   0.542904493375161   0.336539626275744   0.608692472735029   1.0
H8   H   0.677356896967318   0.828035851930785   0.612875676214351   1.0
H9   H   0.293407048090302   0.664798444094025   0.605378412381064   1.0
H10   H   0.263373180703681   0.326767041205471   0.381684776851401   1.0
Cl11   Cl   0.590007874997951   0.704805619830232   0.977008542696936   1.0
Cl12   Cl   0.002497370682320   0.108767998652219   0.220255173231678   1.0
Cl13   Cl   0.030728594124938   0.152702133883984   0.727056468770122   1.0
N14   N   0.383408606910436   0.463232658260480   0.361883671132887   1.0
Ge15   Ge   0.027758839015199   0.482071033100468   0.957232371287354   1.0




# HOIP entry ID:                    0105
# Khazana ID:                       1955
# Organic cation source:            B.Saparov et al., Chem. Rev. 116, 4558 (2016)
# Label:                            Ethylammonium Germanium Chloride
# Material class:                   Hybrid organic-inorganic perovskite ( MC_ino )
# Geometry class:                   Bulk crystalline materials ( GC_cry )
# Organic cation chemical formula:  CH3CH2NH3
# Number of atom types:             5
# Total number of atoms:            15
# Atom types:                       C H N  Ge Cl
# Number of each atom:              2 8 1  1 3
# Bandgap, HSE06 (eV):              4.3239
# Bandgap, GGA (eV):                3.3471
# Kpoint for VBM:                   0.5, 0.5, 0.5
# Kpoint for CBM:                   0.4286, 0, 0.4
# Dielectric constant, electronic:  3.0918
# Dielectric constant, ionic:       4.5519
# Dielectric constant, total:       7.6437
# Refractive index:                 1.7583
# Atomization energy (eV/atom):     -4.3788
# Relative energy1 (eV/atom):       0.1044
# Relative energy2 (eV/atom):       0.2973
# Volume of the unit cell (A^3):    189.74
# Density (g/cm^3):                 1.9697
# Tool:                             VASP
# Pseudopotential:                  PAW
# Note:                             ENCUT=400eV, k-spacing_relax=0.20/Angstrom, k-spacing_bandgap=0.15/Angstrom
# Created by:                       C.Kim, T.D.Huan, S.Krishnan, R. Ramprasad