data_1
_audit_creation_method   'Generated by vasp2cif'
_cell_length_a    10.3653653703
_cell_length_b    4.59342506542
_cell_length_c    4.09810501424
_cell_angle_alpha    90.2807986442
_cell_angle_beta    89.6636233719
_cell_angle_gamma    83.6945461122

_symmetry_space_group_name_H-M    'P 1'
loop_
_atom_site_label
_atom_site_type_symbol
_atom_site_fract_x
_atom_site_fract_y
_atom_site_fract_z
_atom_site_occupancy
C1   C   0.596084118038114   0.715531825209865   0.549037422823758   1.0
C2   C   0.507113241425039   0.475518200000316   0.513047068549966   1.0
H3   H   0.516375872345108   0.325893697646954   0.719855692923815   1.0
H4   H   0.406455114592028   0.573603359708017   0.503803313143564   1.0
H5   H   0.755503826262753   0.442241080942679   0.749874649422772   1.0
H6   H   0.796098641357553   0.755926608205222   0.591489536991020   1.0
H7   H   0.587424739888107   0.867538582151965   0.345210681534340   1.0
H8   H   0.528244980785644   0.350287175150804   0.287969923105422   1.0
H9   H   0.576802804213607   0.840577157731104   0.774038123902535   1.0
H10   H   0.766015613065854   0.472286113327996   0.351489139085025   1.0
Cl11   Cl   0.082596979825475   0.497570188662770   0.543377185513201   1.0
Cl12   Cl   0.814668826424239   0.073959800367390   0.055608030897304   1.0
Cl13   Cl   0.325989768549789   0.016297504827435   0.032680521228599   1.0
N14   N   0.737596553531979   0.590776915430432   0.560327614983670   1.0
Ge15   Ge   0.102698919694760   0.110641790637011   0.037491095895099   1.0




# HOIP entry ID:                    0106
# Khazana ID:                       1956
# Organic cation source:            B.Saparov et al., Chem. Rev. 116, 4558 (2016)
# Label:                            Ethylammonium Germanium Chloride
# Material class:                   Hybrid organic-inorganic perovskite ( MC_ino )
# Geometry class:                   Bulk crystalline materials ( GC_cry )
# Organic cation chemical formula:  CH3CH2NH3
# Number of atom types:             5
# Total number of atoms:            15
# Atom types:                       C H N  Ge Cl
# Number of each atom:              2 8 1  1 3
# Bandgap, HSE06 (eV):              3.1393
# Bandgap, GGA (eV):                2.2048
# Kpoint for VBM:                   0.4474, 0.5, 0
# Kpoint for CBM:                   0, 0.5, 0
# Dielectric constant, electronic:  3.2568
# Dielectric constant, ionic:       9.626
# Dielectric constant, total:       12.8829
# Refractive index:                 1.8047
# Atomization energy (eV/atom):     -4.3669
# Relative energy1 (eV/atom):       0.1163
# Relative energy2 (eV/atom):       0.3091
# Volume of the unit cell (A^3):    193.93
# Density (g/cm^3):                 1.9271
# Tool:                             VASP
# Pseudopotential:                  PAW
# Note:                             ENCUT=400eV, k-spacing_relax=0.20/Angstrom, k-spacing_bandgap=0.15/Angstrom
# Created by:                       C.Kim, T.D.Huan, S.Krishnan, R. Ramprasad