data_1
_audit_creation_method   'Generated by vasp2cif'
_cell_length_a    5.8727060794
_cell_length_b    5.66404669951
_cell_length_c    7.05883201554
_cell_angle_alpha    107.465114743
_cell_angle_beta    85.4782015237
_cell_angle_gamma    85.8852530531

_symmetry_space_group_name_H-M    'P 1'
loop_
_atom_site_label
_atom_site_type_symbol
_atom_site_fract_x
_atom_site_fract_y
_atom_site_fract_z
_atom_site_occupancy
C1   C   0.416575787294662   0.695567381966378   0.619358015551406   1.0
C2   C   0.310929362631301   0.489287076701704   0.683417317862907   1.0
C3   C   0.375061915042820   0.492893869299756   0.889944643829366   1.0
H4   H   0.287510767480285   0.655743405569012   0.004930823430805   1.0
H5   H   0.325844290762779   0.326991947775964   0.923751235653278   1.0
H6   H   0.374911681587754   0.309783543082176   0.574172812948261   1.0
H7   H   0.123483877313688   0.509530210295965   0.683778959372509   1.0
H8   H   0.383219575341073   0.527914089566930   0.314822638534789   1.0
H9   H   0.411531488161617   0.830940671973657   0.366504238637555   1.0
H10   H   0.560151206473296   0.497223982028569   0.896982807964023   1.0
H11   H   0.364182218603355   0.879611758115640   0.725081197979643   1.0
H12   H   0.603516339837935   0.666446340482975   0.598026396864977   1.0
H13   H   0.162075237270386   0.734473355457886   0.431846987968527   1.0
Cl14   Cl   0.480882903314999   0.093080144284743   0.177783611655061   1.0
Cl15   Cl   0.869068024747641   0.546279995919301   0.218087295121930   1.0
Cl16   Cl   0.886870109322230   0.061420609716345   0.744940371351762   1.0
N17   N   0.338274028504680   0.699802212060439   0.420285408667788   1.0
Ge18   Ge   0.896311186309484   0.094899405702576   0.092035236605419   1.0




# HOIP entry ID:                    0109
# Khazana ID:                       1959
# Organic cation source:            S.Kataoka et al., J. Am. Chem. Soc. 137, 4158 (2015)
# Label:                            Propylammonium Germanium Chloride
# Material class:                   Hybrid organic-inorganic perovskite ( MC_ino )
# Geometry class:                   Bulk crystalline materials ( GC_cry )
# Organic cation chemical formula:  CH3CH2CH2NH3
# Number of atom types:             5
# Total number of atoms:            18
# Atom types:                       C H N  Ge Cl
# Number of each atom:              3 10 1  1 3
# Bandgap, HSE06 (eV):              4.2402
# Bandgap, GGA (eV):                3.2668
# Kpoint for VBM:                   0.5, 0.5, 0
# Kpoint for CBM:                   0.5, 0.5, 0.5
# Dielectric constant, electronic:  2.9177
# Dielectric constant, ionic:       2.2809
# Dielectric constant, total:       5.1987
# Refractive index:                 1.7081
# Atomization energy (eV/atom):     -4.5022
# Relative energy1 (eV/atom):       0.0256
# Relative energy2 (eV/atom):       0.1863
# Volume of the unit cell (A^3):    222.15
# Density (g/cm^3):                 1.7872
# Tool:                             VASP
# Pseudopotential:                  PAW
# Note:                             ENCUT=400eV, k-spacing_relax=0.20/Angstrom, k-spacing_bandgap=0.15/Angstrom
# Created by:                       C.Kim, T.D.Huan, S.Krishnan, R. Ramprasad