data_1
_audit_creation_method   'Generated by vasp2cif'
_cell_length_a    5.80778739577
_cell_length_b    5.73448089062
_cell_length_c    7.16022965932
_cell_angle_alpha    106.928157658
_cell_angle_beta    78.4349982033
_cell_angle_gamma    94.6110585944

_symmetry_space_group_name_H-M    'P 1'
loop_
_atom_site_label
_atom_site_type_symbol
_atom_site_fract_x
_atom_site_fract_y
_atom_site_fract_z
_atom_site_occupancy
C1   C   0.500024417824480   0.631429771074650   0.625542828144033   1.0
C2   C   0.391919068108502   0.437728323970420   0.727147090554226   1.0
C3   C   0.545388165703710   0.402026060802478   0.867076881156761   1.0
H4   H   0.555887238168734   0.567832213701266   0.988259341184857   1.0
H5   H   0.473536846916415   0.254730205708221   0.931193275601053   1.0
H6   H   0.375493977210211   0.264812615770859   0.613573847043117   1.0
H7   H   0.213879890783692   0.488519300787968   0.808172687582675   1.0
H8   H   0.406055534119428   0.450349488736122   0.349052689137798   1.0
H9   H   0.443127653385143   0.751071151005298   0.381128642905509   1.0
H10   H   0.724746835557959   0.354299390828347   0.787873334508974   1.0
H11   H   0.479523579355933   0.816067300668868   0.724940561143069   1.0
H12   H   0.685637953564049   0.601632248498676   0.562395979071701   1.0
H13   H   0.202443548455262   0.643538827570637   0.499793965038707   1.0
Cl14   Cl   0.499676675880694   0.033994444916494   0.215531846823956   1.0
Cl15   Cl   0.962189072197896   0.493631003392482   0.202441832277013   1.0
Cl16   Cl   0.985678219742125   0.951548770646091   0.794248682956900   1.0
N17   N   0.380504494389108   0.618932596612201   0.452463172732043   1.0
Ge18   Ge   0.942226828636598   0.052126285308937   0.145353342137734   1.0




# HOIP entry ID:                    0110
# Khazana ID:                       1960
# Organic cation source:            S.Kataoka et al., J. Am. Chem. Soc. 137, 4158 (2015)
# Label:                            Propylammonium Germanium Chloride
# Material class:                   Hybrid organic-inorganic perovskite ( MC_ino )
# Geometry class:                   Bulk crystalline materials ( GC_cry )
# Organic cation chemical formula:  CH3CH2CH2NH3
# Number of atom types:             5
# Total number of atoms:            18
# Atom types:                       C H N  Ge Cl
# Number of each atom:              3 10 1  1 3
# Bandgap, HSE06 (eV):              3.8649
# Bandgap, GGA (eV):                2.922
# Kpoint for VBM:                   0.5, 0.5, 0.5
# Kpoint for CBM:                   0.5, 0.5, 0.5
# Dielectric constant, electronic:  2.9711
# Dielectric constant, ionic:       2.4028
# Dielectric constant, total:       5.3739
# Refractive index:                 1.7237
# Atomization energy (eV/atom):     -4.504
# Relative energy1 (eV/atom):       0.0238
# Relative energy2 (eV/atom):       0.1845
# Volume of the unit cell (A^3):    223.44
# Density (g/cm^3):                 1.7769
# Tool:                             VASP
# Pseudopotential:                  PAW
# Note:                             ENCUT=400eV, k-spacing_relax=0.20/Angstrom, k-spacing_bandgap=0.15/Angstrom
# Created by:                       C.Kim, T.D.Huan, S.Krishnan, R. Ramprasad