data_1
_audit_creation_method   'Generated by vasp2cif'
_cell_length_a    6.07324464504
_cell_length_b    5.82215047479
_cell_length_c    6.13153852516
_cell_angle_alpha    81.6347110541
_cell_angle_beta    80.0875698
_cell_angle_gamma    82.2835306459

_symmetry_space_group_name_H-M    'P 1'
loop_
_atom_site_label
_atom_site_type_symbol
_atom_site_fract_x
_atom_site_fract_y
_atom_site_fract_z
_atom_site_occupancy
C1   C   0.528310328898264   0.600256033503825   0.383766451199882   1.0
C2   C   0.528278285304225   0.445249168581085   0.203309033750522   1.0
C3   C   0.409915209003451   0.226342144841830   0.289970539816430   1.0
H4   H   0.231651825910930   0.273367290767695   0.350353773092806   1.0
H5   H   0.421559069466333   0.118197844376702   0.157149902289262   1.0
H6   H   0.702151130882513   0.399013463117328   0.124968423678069   1.0
H7   H   0.442219024664084   0.550996317546556   0.073520254749972   1.0
H8   H   0.660107469415188   0.328390587521525   0.620981121876980   1.0
H9   H   0.698148105570596   0.600003871864445   0.658690238587447   1.0
H10   H   0.484860229318009   0.120651828798835   0.427068771611779   1.0
H11   H   0.582539275773144   0.769446973759429   0.313625443294228   1.0
H12   H   0.364492794930335   0.623348272126876   0.488124771926564   1.0
H13   H   0.855448763641455   0.474719910313318   0.452492939699361   1.0
Cl14   Cl   0.693187385255648   0.949279640662844   0.804684252668352   1.0
Cl15   Cl   0.099752467365917   0.352676290867493   0.833718518795749   1.0
Cl16   Cl   0.016095709187631   0.866339012316793   0.251310227323600   1.0
N17   N   0.694826956701952   0.491377943000465   0.540107552774721   1.0
Ge18   Ge   0.093455968710337   0.932743406032841   0.855697782864297   1.0




# HOIP entry ID:                    0112
# Khazana ID:                       1962
# Organic cation source:            S.Kataoka et al., J. Am. Chem. Soc. 137, 4158 (2015)
# Label:                            Propylammonium Germanium Chloride
# Material class:                   Hybrid organic-inorganic perovskite ( MC_ino )
# Geometry class:                   Bulk crystalline materials ( GC_cry )
# Organic cation chemical formula:  CH3CH2CH2NH3
# Number of atom types:             5
# Total number of atoms:            18
# Atom types:                       C H N  Ge Cl
# Number of each atom:              3 10 1  1 3
# Bandgap, HSE06 (eV):              4.1859
# Bandgap, GGA (eV):                3.2108
# Kpoint for VBM:                   0.5, 0.5, 0.5
# Kpoint for CBM:                   0.5, 0.5, 0
# Dielectric constant, electronic:  3.1057
# Dielectric constant, ionic:       2.4838
# Dielectric constant, total:       5.5895
# Refractive index:                 1.7623
# Atomization energy (eV/atom):     -4.5056
# Relative energy1 (eV/atom):       0.0222
# Relative energy2 (eV/atom):       0.1829
# Volume of the unit cell (A^3):    209.97
# Density (g/cm^3):                 1.8909
# Tool:                             VASP
# Pseudopotential:                  PAW
# Note:                             ENCUT=400eV, k-spacing_relax=0.20/Angstrom, k-spacing_bandgap=0.15/Angstrom
# Created by:                       C.Kim, T.D.Huan, S.Krishnan, R. Ramprasad