data_1
_audit_creation_method   'Generated by vasp2cif'
_cell_length_a    5.78805597195
_cell_length_b    5.88693252858
_cell_length_c    6.48219534292
_cell_angle_alpha    80.8481993576
_cell_angle_beta    77.2060836614
_cell_angle_gamma    82.0473513239

_symmetry_space_group_name_H-M    'P 1'
loop_
_atom_site_label
_atom_site_type_symbol
_atom_site_fract_x
_atom_site_fract_y
_atom_site_fract_z
_atom_site_occupancy
C1   C   0.524734695494111   0.626132072840491   0.352183246372725   1.0
C2   C   0.537819856603981   0.474629015026167   0.179176492273385   1.0
C3   C   0.411232158312195   0.256195957107316   0.256811821985195   1.0
H4   H   0.219914147604058   0.299511958127681   0.315168172728711   1.0
H5   H   0.431817551140483   0.154536289095844   0.126486263136101   1.0
H6   H   0.724998415408919   0.430151160955503   0.106194431922951   1.0
H7   H   0.456911968396724   0.580914189258891   0.054160715435714   1.0
H8   H   0.859814518390891   0.491543572286112   0.426570100847521   1.0
H9   H   0.637386329855588   0.355659507660064   0.586182798976687   1.0
H10   H   0.483828480064176   0.146438183757674   0.385092809857120   1.0
H11   H   0.588787424951335   0.792534211793985   0.285733160539912   1.0
H12   H   0.346006883208098   0.651594617408392   0.448821105615309   1.0
H13   H   0.681182871870149   0.622983936847660   0.619526603366772   1.0
Cl14   Cl   0.598445915864183   0.966130781386987   0.766006621588055   1.0
Cl15   Cl   0.101152374464874   0.406193081862369   0.796981279143779   1.0
Cl16   Cl   0.024941485081563   0.906054163559986   0.186654288883432   1.0
N17   N   0.685763742113735   0.514516526188082   0.507041970232265   1.0
Ge18   Ge   0.135651181174943   0.990240774836813   0.810588117094269   1.0




# HOIP entry ID:                    0113
# Khazana ID:                       1963
# Organic cation source:            S.Kataoka et al., J. Am. Chem. Soc. 137, 4158 (2015)
# Label:                            Propylammonium Germanium Chloride
# Material class:                   Hybrid organic-inorganic perovskite ( MC_ino )
# Geometry class:                   Bulk crystalline materials ( GC_cry )
# Organic cation chemical formula:  CH3CH2CH2NH3
# Number of atom types:             5
# Total number of atoms:            18
# Atom types:                       C H N  Ge Cl
# Number of each atom:              3 10 1  1 3
# Bandgap, HSE06 (eV):              3.6967
# Bandgap, GGA (eV):                2.7957
# Kpoint for VBM:                   0.5, 0.5, 0.5
# Kpoint for CBM:                   0.5, 0.5, 0.5
# Dielectric constant, electronic:  3.1727
# Dielectric constant, ionic:       4.6243
# Dielectric constant, total:       7.797
# Refractive index:                 1.7812
# Atomization energy (eV/atom):     -4.5009
# Relative energy1 (eV/atom):       0.0269
# Relative energy2 (eV/atom):       0.1876
# Volume of the unit cell (A^3):    211.42
# Density (g/cm^3):                 1.8779
# Tool:                             VASP
# Pseudopotential:                  PAW
# Note:                             ENCUT=400eV, k-spacing_relax=0.20/Angstrom, k-spacing_bandgap=0.15/Angstrom
# Created by:                       C.Kim, T.D.Huan, S.Krishnan, R. Ramprasad