data_1
_audit_creation_method   'Generated by vasp2cif'
_cell_length_a    7.75747457276
_cell_length_b    4.38315876734
_cell_length_c    6.82428654865
_cell_angle_alpha    80.1525291864
_cell_angle_beta    83.9931847947
_cell_angle_gamma    78.3311695539

_symmetry_space_group_name_H-M    'P 1'
loop_
_atom_site_label
_atom_site_type_symbol
_atom_site_fract_x
_atom_site_fract_y
_atom_site_fract_z
_atom_site_occupancy
C1   C   0.912963265451161   0.347837484439978   0.374312133813945   1.0
C2   C   0.742922416600770   0.222479940251553   0.439962038143570   1.0
C3   C   0.652242369515889   0.201523950999167   0.253853961908959   1.0
H4   H   0.528039911314025   0.119273422001108   0.297253780279739   1.0
H5   H   0.736196304008033   0.038641702661913   0.162643585907588   1.0
H6   H   0.772044289193623   0.988693364923698   0.530752474981369   1.0
H7   H   0.654893571135091   0.375623446351057   0.534537599783029   1.0
H8   H   0.065848027419953   0.059510376052792   0.602663465609446   1.0
H9   H   0.983149067706513   0.416666879564616   0.656975639283623   1.0
H10   H   0.987761987650913   0.228512679376209   0.256027381305806   1.0
H11   H   0.626102934251776   0.433254834495017   0.160511056052428   1.0
H12   H   0.887683074930166   0.600320186873546   0.320624424029937   1.0
H13   H   0.151857210669476   0.370342478635628   0.485923993217959   1.0
Cl14   Cl   0.423943167816731   0.887296539793681   0.742258900339117   1.0
Cl15   Cl   0.982383254096383   0.714519011630387   0.889309486774827   1.0
Cl16   Cl   0.267570171568821   0.768776653402661   0.272387522668225   1.0
N17   N   0.036015547644816   0.293595809670279   0.540832144512088   1.0
Ge18   Ge   0.295733429025859   0.504351238876680   0.974790411388398   1.0




# HOIP entry ID:                    0114
# Khazana ID:                       1964
# Organic cation source:            S.Kataoka et al., J. Am. Chem. Soc. 137, 4158 (2015)
# Label:                            Propylammonium Germanium Chloride
# Material class:                   Hybrid organic-inorganic perovskite ( MC_ino )
# Geometry class:                   Bulk crystalline materials ( GC_cry )
# Organic cation chemical formula:  CH3CH2CH2NH3
# Number of atom types:             5
# Total number of atoms:            18
# Atom types:                       C H N  Ge Cl
# Number of each atom:              3 10 1  1 3
# Bandgap, HSE06 (eV):              4.7243
# Bandgap, GGA (eV):                3.7078
# Kpoint for VBM:                   0.1, 0.3889, 0.3333
# Kpoint for CBM:                   -0.4, 0, 0.4167
# Dielectric constant, electronic:  2.8653
# Dielectric constant, ionic:       2.1929
# Dielectric constant, total:       5.0582
# Refractive index:                 1.6927
# Atomization energy (eV/atom):     -4.4965
# Relative energy1 (eV/atom):       0.0312
# Relative energy2 (eV/atom):       0.1919
# Volume of the unit cell (A^3):    223.31
# Density (g/cm^3):                 1.7779
# Tool:                             VASP
# Pseudopotential:                  PAW
# Note:                             ENCUT=400eV, k-spacing_relax=0.20/Angstrom, k-spacing_bandgap=0.15/Angstrom
# Created by:                       C.Kim, T.D.Huan, S.Krishnan, R. Ramprasad