data_1
_audit_creation_method   'Generated by vasp2cif'
_cell_length_a    7.88267873648
_cell_length_b    5.1467181951
_cell_length_c    6.99751970215
_cell_angle_alpha    73.3197743856
_cell_angle_beta    57.4906816575
_cell_angle_gamma    93.4061445686

_symmetry_space_group_name_H-M    'P 1'
loop_
_atom_site_label
_atom_site_type_symbol
_atom_site_fract_x
_atom_site_fract_y
_atom_site_fract_z
_atom_site_occupancy
C1   C   0.618749428599243   0.612556883885563   0.966568769778290   1.0
C2   C   0.649270748870871   0.822628292259316   0.739753765139279   1.0
C3   C   0.811739594888525   0.098200089948377   0.632007378241358   1.0
H4   H   0.767088646590205   0.200671967143997   0.762613719572108   1.0
H5   H   0.832063560149125   0.242854253722268   0.468789978858822   1.0
H6   H   0.698388068764686   0.728591623763376   0.602712932091975   1.0
H7   H   0.501548111506613   0.868393075181247   0.783960879825300   1.0
H8   H   0.433912904400543   0.296862972506957   0.961108163996528   1.0
H9   H   0.299326263020769   0.405549041477761   0.190006354398258   1.0
H10   H   0.756587091995178   0.535538566078560   0.919833363896574   1.0
H11   H   0.963793614987260   0.060542101612575   0.579073178628054   1.0
H12   H   0.579830588373733   0.695878958029141   0.107768032747476   1.0
H13   H   0.446677727073327   0.186982449400609   0.201591571929029   1.0
Cl14   Cl   0.140385521495702   0.766042160777440   0.261128917742772   1.0
Cl15   Cl   0.327952148300804   0.329538381141134   0.677313006527991   1.0
Cl16   Cl   0.782810822815437   0.067987025252538   0.167817048227013   1.0
N17   N   0.438206480235679   0.355730521582716   0.087995125514304   1.0
Ge18   Ge   0.067738677932370   0.880241636236508   0.949887812884857   1.0




# HOIP entry ID:                    0117
# Khazana ID:                       1967
# Organic cation source:            S.Kataoka et al., J. Am. Chem. Soc. 137, 4158 (2015)
# Label:                            Propylammonium Germanium Chloride
# Material class:                   Hybrid organic-inorganic perovskite ( MC_ino )
# Geometry class:                   Bulk crystalline materials ( GC_cry )
# Organic cation chemical formula:  CH3CH2CH2NH3
# Number of atom types:             5
# Total number of atoms:            18
# Atom types:                       C H N  Ge Cl
# Number of each atom:              3 10 1  1 3
# Bandgap, HSE06 (eV):              4.8305
# Bandgap, GGA (eV):                3.8109
# Kpoint for VBM:                   0.5, 0.5, 0.5
# Kpoint for CBM:                   0.1, 0, 0.5
# Dielectric constant, electronic:  2.8363
# Dielectric constant, ionic:       2.1089
# Dielectric constant, total:       4.9452
# Refractive index:                 1.6841
# Atomization energy (eV/atom):     -4.4904
# Relative energy1 (eV/atom):       0.0374
# Relative energy2 (eV/atom):       0.1981
# Volume of the unit cell (A^3):    221.16
# Density (g/cm^3):                 1.7952
# Tool:                             VASP
# Pseudopotential:                  PAW
# Note:                             ENCUT=400eV, k-spacing_relax=0.20/Angstrom, k-spacing_bandgap=0.15/Angstrom
# Created by:                       C.Kim, T.D.Huan, S.Krishnan, R. Ramprasad