data_1
_audit_creation_method   'Generated by vasp2cif'
_cell_length_a    6.27614960026
_cell_length_b    7.12799654291
_cell_length_c    6.0448181048
_cell_angle_alpha    76.6895488111
_cell_angle_beta    98.5542474467
_cell_angle_gamma    112.624891289

_symmetry_space_group_name_H-M    'P 1'
loop_
_atom_site_label
_atom_site_type_symbol
_atom_site_fract_x
_atom_site_fract_y
_atom_site_fract_z
_atom_site_occupancy
C1   C   0.220783749425301   0.691526800670118   0.534154224399465   1.0
C2   C   0.422813956013272   0.274402374601607   0.402726823400116   1.0
C3   C   0.338508069715132   0.454020047862343   0.362378122099635   1.0
C4   C   0.286783597929968   0.499917280393248   0.581293166245395   1.0
H5   H   0.778542531592159   0.450863148261362   0.432885898938011   1.0
H6   H   0.715984325118868   0.203023939281678   0.554252463109286   1.0
H7   H   0.663548022782194   0.362944148623804   0.686443034838902   1.0
H8   H   0.362604119732971   0.827901939302265   0.459755179956900   1.0
H9   H   0.070841090301009   0.676882773480514   0.411478258040454   1.0
H10   H   0.181286626613307   0.718657619192406   0.690264560964316   1.0
H11   H   0.181297672240675   0.415334761990899   0.248004178967371   1.0
H12   H   0.464758445787453   0.594192632404450   0.269033102301620   1.0
H13   H   0.148348928902969   0.363737727057739   0.665033186389678   1.0
H14   H   0.437592108145424   0.525178867708377   0.704334260225487   1.0
H15   H   0.309100658079920   0.136058911956340   0.506337014569759   1.0
H16   H   0.443229958870788   0.238039110611311   0.243883346234256   1.0
Cl17   Cl   0.348616629327573   0.991619423905767   0.963667734309908   1.0
Cl18   Cl   0.844452651417789   0.953120853314537   0.549264562204037   1.0
Cl19   Cl   0.829119367765593   0.534491612629445   0.006008372830657   1.0
N20   N   0.661021925846121   0.326787447740592   0.529963583940109   1.0
Ge21   Ge   0.938675564391474   0.907628579011188   0.961018926034619   1.0




# HOIP entry ID:                    0120
# Khazana ID:                       1970
# Organic cation source:            H. Hu et al., Sci. Rep. 6, 33546 (2016)
# Label:                            Butylammonium Germanium Chloride
# Material class:                   Hybrid organic-inorganic perovskite ( MC_ino )
# Geometry class:                   Bulk crystalline materials ( GC_cry )
# Organic cation chemical formula:  CH3CH2CH2CH2NH3
# Number of atom types:             5
# Total number of atoms:            21
# Atom types:                       C H N  Ge Cl
# Number of each atom:              4 12 1  1 3
# Bandgap, HSE06 (eV):              4.4237
# Bandgap, GGA (eV):                3.4573
# Kpoint for VBM:                   0.5, 0.5, 0.5
# Kpoint for CBM:                   0.5, 0.5, 0.5
# Dielectric constant, electronic:  2.8571
# Dielectric constant, ionic:       1.7619
# Dielectric constant, total:       4.619
# Refractive index:                 1.6903
# Atomization energy (eV/atom):     -4.5824
# Relative energy1 (eV/atom):       -0.0228
# Relative energy2 (eV/atom):       0.1149
# Volume of the unit cell (A^3):    242.36
# Density (g/cm^3):                 1.7343
# Tool:                             VASP
# Pseudopotential:                  PAW
# Note:                             ENCUT=400eV, k-spacing_relax=0.20/Angstrom, k-spacing_bandgap=0.15/Angstrom
# Created by:                       C.Kim, T.D.Huan, S.Krishnan, R. Ramprasad