data_1
_audit_creation_method   'Generated by vasp2cif'
_cell_length_a    6.27939747228
_cell_length_b    5.7882537949
_cell_length_c    7.51601653141
_cell_angle_alpha    70.0591173134
_cell_angle_beta    86.1923491028
_cell_angle_gamma    90.5415765532

_symmetry_space_group_name_H-M    'P 1'
loop_
_atom_site_label
_atom_site_type_symbol
_atom_site_fract_x
_atom_site_fract_y
_atom_site_fract_z
_atom_site_occupancy
C1   C   0.462472585102830   0.629363390234467   0.815581260139112   1.0
C2   C   0.488072112921593   0.224825634874726   0.493071983642409   1.0
C3   C   0.412637049727564   0.338112399664844   0.640581551751481   1.0
C4   C   0.566681551521022   0.530123206497407   0.666950796093694   1.0
H5   H   0.337550315107976   0.465986644500326   0.260802019681691   1.0
H6   H   0.555277191567207   0.336511431333207   0.198581688037642   1.0
H7   H   0.581622249918581   0.568791704897670   0.279595193214689   1.0
H8   H   0.321249190389871   0.732415896087083   0.763145130070228   1.0
H9   H   0.406366711510046   0.475300436424767   0.942293985968362   1.0
H10   H   0.572124968168815   0.747513091461109   0.855198571125506   1.0
H11   H   0.388256975157589   0.186657606326854   0.776237663004103   1.0
H12   H   0.255357848236955   0.417120391163728   0.607646859270893   1.0
H13   H   0.718836575935825   0.445758839711978   0.711823350248167   1.0
H14   H   0.604597459028476   0.682908660929705   0.533144451878194   1.0
H15   H   0.649563768697263   0.157599759205389   0.512400342861682   1.0
H16   H   0.379810761468150   0.075389373116764   0.494423171141932   1.0
Cl17   Cl   0.959357590063775   0.969230947065121   0.731228971865555   1.0
Cl18   Cl   0.614195866377649   0.998347994672493   0.118983862823335   1.0
Cl19   Cl   0.999283670620464   0.531847173414469   0.202559373661124   1.0
N20   N   0.491258513881405   0.413020724029053   0.294839752835678   1.0
Ge21   Ge   0.998657044596989   0.980194694388906   0.037990020684631   1.0




# HOIP entry ID:                    0121
# Khazana ID:                       1971
# Organic cation source:            H. Hu et al., Sci. Rep. 6, 33546 (2016)
# Label:                            Butylammonium Germanium Chloride
# Material class:                   Hybrid organic-inorganic perovskite ( MC_ino )
# Geometry class:                   Bulk crystalline materials ( GC_cry )
# Organic cation chemical formula:  CH3CH2CH2CH2NH3
# Number of atom types:             5
# Total number of atoms:            21
# Atom types:                       C H N  Ge Cl
# Number of each atom:              4 12 1  1 3
# Bandgap, HSE06 (eV):              4.6071
# Bandgap, GGA (eV):                3.5945
# Kpoint for VBM:                   0.5, 0.5, 0
# Kpoint for CBM:                   0.5, 0.5, 0.5
# Dielectric constant, electronic:  2.7055
# Dielectric constant, ionic:       1.4715
# Dielectric constant, total:       4.1769
# Refractive index:                 1.6448
# Atomization energy (eV/atom):     -4.5835
# Relative energy1 (eV/atom):       -0.0239
# Relative energy2 (eV/atom):       0.1138
# Volume of the unit cell (A^3):    256.09
# Density (g/cm^3):                 1.6413
# Tool:                             VASP
# Pseudopotential:                  PAW
# Note:                             ENCUT=400eV, k-spacing_relax=0.20/Angstrom, k-spacing_bandgap=0.15/Angstrom
# Created by:                       C.Kim, T.D.Huan, S.Krishnan, R. Ramprasad