data_1
_audit_creation_method   'Generated by vasp2cif'
_cell_length_a    6.1988655267
_cell_length_b    6.12435665314
_cell_length_c    5.85350111751
_cell_angle_alpha    76.8190318424
_cell_angle_beta    82.5655963546
_cell_angle_gamma    90.3920616491

_symmetry_space_group_name_H-M    'P 1'
loop_
_atom_site_label
_atom_site_type_symbol
_atom_site_fract_x
_atom_site_fract_y
_atom_site_fract_z
_atom_site_occupancy
C1   C   0.426869967967761   0.645115921028314   0.352276740909403   1.0
C2   C   0.610412806381476   0.759158281579360   0.437591462107001   1.0
C3   C   0.538490815444604   0.860620037999141   0.648622257783302   1.0
H4   H   0.433056534996808   0.999264780913833   0.593098855686250   1.0
H5   H   0.446364754021452   0.737398767591046   0.793502153208323   1.0
H6   H   0.677356804791991   0.925830659822324   0.712671910172816   1.0
H7   H   0.899511982781867   0.647412081753956   0.583704193105206   1.0
H8   H   0.696283918482017   0.886053064037760   0.291393775274578   1.0
H9   H   0.304426768210966   0.767394571886257   0.301147462821660   1.0
H10   H   0.348212654427265   0.507176777400332   0.492697964649579   1.0
H11   H   0.486455167513540   0.577954181129201   0.199432863523356   1.0
H12   H   0.853512239066738   0.531003403092726   0.360540524148100   1.0
H13   H   0.707574899860063   0.446457302001846   0.630995762417925   1.0
Cl14   Cl   0.500408812579380   0.240469899955599   0.985917896248004   1.0
Cl15   Cl   0.023641375674224   0.600573861615615   0.966205933701133   1.0
Cl16   Cl   0.048987146221208   0.130735875461525   0.442757320381205   1.0
N17   N   0.780429432044961   0.583487464498646   0.506502387904241   1.0
Ge18   Ge   0.107733919533743   0.200703068232492   0.017690535957911   1.0




# HOIP entry ID:                    0123
# Khazana ID:                       1973
# Organic cation source:            C.C.Stoumpos et al., J. Am. Chem. Soc. 137, 6804 (2015)
# Label:                            Isopropylammonium Germanium Chloride
# Material class:                   Hybrid organic-inorganic perovskite ( MC_ino )
# Geometry class:                   Bulk crystalline materials ( GC_cry )
# Organic cation chemical formula:  (CH3)2CHNH3
# Number of atom types:             5
# Total number of atoms:            18
# Atom types:                       C H N  Ge Cl
# Number of each atom:              3 10 1  1 3
# Bandgap, HSE06 (eV):              4.18
# Bandgap, GGA (eV):                3.2473
# Kpoint for VBM:                   0.5, 0.5, 0.5
# Kpoint for CBM:                   -0.4167, -0.4167, 0.4286
# Dielectric constant, electronic:  3.015
# Dielectric constant, ionic:       2.1683
# Dielectric constant, total:       5.1832
# Refractive index:                 1.7364
# Atomization energy (eV/atom):     -4.5114
# Relative energy1 (eV/atom):       0.0223
# Relative energy2 (eV/atom):       0.183
# Volume of the unit cell (A^3):    214.4
# Density (g/cm^3):                 1.8518
# Tool:                             VASP
# Pseudopotential:                  PAW
# Note:                             ENCUT=400eV, k-spacing_relax=0.20/Angstrom, k-spacing_bandgap=0.15/Angstrom
# Created by:                       C.Kim, T.D.Huan, S.Krishnan, R. Ramprasad