data_1
_audit_creation_method   'Generated by vasp2cif'
_cell_length_a    5.87857350547
_cell_length_b    5.50927946079
_cell_length_c    6.80071592964
_cell_angle_alpha    95.7323562197
_cell_angle_beta    93.9293929558
_cell_angle_gamma    83.5914337417

_symmetry_space_group_name_H-M    'P 1'
loop_
_atom_site_label
_atom_site_type_symbol
_atom_site_fract_x
_atom_site_fract_y
_atom_site_fract_z
_atom_site_occupancy
C1   C   0.629750614282462   0.711631448634731   0.638512770902278   1.0
C2   C   0.454624728420499   0.527250126825628   0.639084408411477   1.0
C3   C   0.310189415576154   0.563428979062244   0.819903383508498   1.0
H4   H   0.422626963028099   0.547375713133472   0.953408148557703   1.0
H5   H   0.188483561186830   0.426394697071220   0.814200993860854   1.0
H6   H   0.215831135284825   0.747051915213898   0.830667465570909   1.0
H7   H   0.376550239706570   0.513919107747174   0.327116518969004   1.0
H8   H   0.538769458197869   0.339630901338182   0.619389470367856   1.0
H9   H   0.762282156933743   0.679633865403566   0.756191590752202   1.0
H10   H   0.711365814241383   0.691829652282907   0.497728962561727   1.0
H11   H   0.547870379709329   0.900146402544528   0.663513674306844   1.0
H12   H   0.168358963917228   0.432266620835732   0.449760558982135   1.0
H13   H   0.208106577741273   0.730016378970612   0.457814814606589   1.0
Cl14   Cl   0.976258997582338   0.101756992253510   0.491871449600932   1.0
Cl15   Cl   0.873658432744274   0.580054019984889   0.136239808475199   1.0
Cl16   Cl   0.456914398743373   0.083980311572392   0.161586644579291   1.0
N17   N   0.291248469550163   0.553968764447650   0.455436485108735   1.0
Ge18   Ge   0.862959693153521   0.028184102677724   0.132832850877722   1.0




# HOIP entry ID:                    0124
# Khazana ID:                       1974
# Organic cation source:            C.C.Stoumpos et al., J. Am. Chem. Soc. 137, 6804 (2015)
# Label:                            Isopropylammonium Germanium Chloride
# Material class:                   Hybrid organic-inorganic perovskite ( MC_ino )
# Geometry class:                   Bulk crystalline materials ( GC_cry )
# Organic cation chemical formula:  (CH3)2CHNH3
# Number of atom types:             5
# Total number of atoms:            18
# Atom types:                       C H N  Ge Cl
# Number of each atom:              3 10 1  1 3
# Bandgap, HSE06 (eV):              4.0419
# Bandgap, GGA (eV):                3.0774
# Kpoint for VBM:                   0.5, 0.5, 0.5
# Kpoint for CBM:                   0.5, 0.5, 0.5
# Dielectric constant, electronic:  3.0783
# Dielectric constant, ionic:       3.3571
# Dielectric constant, total:       6.4355
# Refractive index:                 1.7545
# Atomization energy (eV/atom):     -4.51
# Relative energy1 (eV/atom):       0.0237
# Relative energy2 (eV/atom):       0.1844
# Volume of the unit cell (A^3):    217.41
# Density (g/cm^3):                 1.8262
# Tool:                             VASP
# Pseudopotential:                  PAW
# Note:                             ENCUT=400eV, k-spacing_relax=0.20/Angstrom, k-spacing_bandgap=0.15/Angstrom
# Created by:                       C.Kim, T.D.Huan, S.Krishnan, R. Ramprasad