data_1
_audit_creation_method   'Generated by vasp2cif'
_cell_length_a    8.03359141819
_cell_length_b    4.74896311167
_cell_length_c    6.61970540625
_cell_angle_alpha    114.986115645
_cell_angle_beta    79.7781721609
_cell_angle_gamma    103.740366342

_symmetry_space_group_name_H-M    'P 1'
loop_
_atom_site_label
_atom_site_type_symbol
_atom_site_fract_x
_atom_site_fract_y
_atom_site_fract_z
_atom_site_occupancy
C1   C   0.345873893623185   0.387809283394745   0.706951682140449   1.0
C2   C   0.400387575651564   0.067054888950757   0.566696871373679   1.0
C3   C   0.269850242189300   0.837501840253232   0.401772409940932   1.0
H4   H   0.145320622249152   0.797586120902501   0.492813972457334   1.0
H5   H   0.309129629652453   0.609009329782026   0.304294338259496   1.0
H6   H   0.251497231011349   0.935947374487860   0.285850944421533   1.0
H7   H   0.666476835808858   0.272887629639413   0.538911560855368   1.0
H8   H   0.424044323704585   0.967393983374890   0.677868282963601   1.0
H9   H   0.284712640218885   0.459769874096764   0.605897697093944   1.0
H10   H   0.252778259324351   0.364642702426544   0.843781273636701   1.0
H11   H   0.453919360943871   0.571870066281406   0.783017499227533   1.0
H12   H   0.619379613657784   0.901442657971089   0.352315574325822   1.0
H13   H   0.567995593972974   0.195957153711497   0.316791215264160   1.0
Cl14   Cl   0.598931499894888   0.385724969366059   0.066261822716086   1.0
Cl15   Cl   0.970745239015748   0.137916299732296   0.169472871206196   1.0
Cl16   Cl   0.812425466615807   0.815805302518861   0.634412041940045   1.0
N17   N   0.574885268960294   0.112075106662203   0.436213057078263   1.0
Ge18   Ge   0.901006703504969   0.337125416447961   0.922606885098851   1.0




# HOIP entry ID:                    0125
# Khazana ID:                       1975
# Organic cation source:            S.Kataoka et al., J. Am. Chem. Soc. 137, 4158 (2015)
# Label:                            Propylammonium Germanium Chloride
# Material class:                   Hybrid organic-inorganic perovskite ( MC_ino )
# Geometry class:                   Bulk crystalline materials ( GC_cry )
# Organic cation chemical formula:  CH3CH2CH2NH3
# Number of atom types:             5
# Total number of atoms:            18
# Atom types:                       C H N  Ge Cl
# Number of each atom:              3 10 1  1 3
# Bandgap, HSE06 (eV):              4.7432
# Bandgap, GGA (eV):                3.718
# Kpoint for VBM:                   -0.2, -0.4444, 0.2857
# Kpoint for CBM:                   0, 0, 0.4286
# Dielectric constant, electronic:  2.8678
# Dielectric constant, ionic:       1.9615
# Dielectric constant, total:       4.8293
# Refractive index:                 1.6935
# Atomization energy (eV/atom):     -4.5037
# Relative energy1 (eV/atom):       0.024
# Relative energy2 (eV/atom):       0.1847
# Volume of the unit cell (A^3):    221.51
# Density (g/cm^3):                 1.7924
# Tool:                             VASP
# Pseudopotential:                  PAW
# Note:                             ENCUT=400eV, k-spacing_relax=0.20/Angstrom, k-spacing_bandgap=0.15/Angstrom
# Created by:                       C.Kim, T.D.Huan, S.Krishnan, R. Ramprasad