data_1
_audit_creation_method   'Generated by vasp2cif'
_cell_length_a    7.4044896084
_cell_length_b    4.81882113067
_cell_length_c    7.14561664919
_cell_angle_alpha    80.4228799623
_cell_angle_beta    77.071499067
_cell_angle_gamma    70.4166223988

_symmetry_space_group_name_H-M    'P 1'
loop_
_atom_site_label
_atom_site_type_symbol
_atom_site_fract_x
_atom_site_fract_y
_atom_site_fract_z
_atom_site_occupancy
C1   C   0.626965778574707   0.267660853619738   0.315229272047517   1.0
C2   C   0.612023195693808   0.970036241128362   0.418032077166160   1.0
C3   C   0.777773425165122   0.800356454466247   0.527788945511162   1.0
H4   H   0.916554538536751   0.742679433968831   0.427639106333487   1.0
H5   H   0.755937584268857   0.597113906559734   0.607641944416997   1.0
H6   H   0.789127403217570   0.936224142058919   0.630878165241796   1.0
H7   H   0.302893737969164   0.102188166146554   0.493491747557968   1.0
H8   H   0.598854393089397   0.838005330944952   0.314525939159402   1.0
H9   H   0.661175872897630   0.386764257131361   0.412911596181793   1.0
H10   H   0.743967752982414   0.230086484150554   0.189307987664570   1.0
H11   H   0.492674020007847   0.402737287313762   0.263819128609420   1.0
H12   H   0.410016043559487   0.831941695744618   0.648958652564545   1.0
H13   H   0.411222208494607   0.172500122004166   0.657224231745303   1.0
Cl14   Cl   0.416494389985189   0.436346779845884   0.874053134403056   1.0
Cl15   Cl   0.003645486186443   0.205864018915882   0.820838068440231   1.0
Cl16   Cl   0.182665611146817   0.024814568218204   0.250715252196244   1.0
N17   N   0.421047878585931   0.023482695600769   0.563224547212272   1.0
Ge18   Ge   0.079860679638287   0.470517562181513   0.034490203548081   1.0




# HOIP entry ID:                    0126
# Khazana ID:                       1976
# Organic cation source:            C.C.Stoumpos et al., J. Am. Chem. Soc. 137, 6804 (2015)
# Label:                            Isopropylammonium Germanium Chloride
# Material class:                   Hybrid organic-inorganic perovskite ( MC_ino )
# Geometry class:                   Bulk crystalline materials ( GC_cry )
# Organic cation chemical formula:  (CH3)2CHNH3
# Number of atom types:             5
# Total number of atoms:            18
# Atom types:                       C H N  Ge Cl
# Number of each atom:              3 10 1  1 3
# Bandgap, HSE06 (eV):              4.777
# Bandgap, GGA (eV):                3.7724
# Kpoint for VBM:                   0.5, 0.5, 0.5
# Kpoint for CBM:                   0, 0, 0.4167
# Dielectric constant, electronic:  2.7385
# Dielectric constant, ionic:       1.4359
# Dielectric constant, total:       4.1745
# Refractive index:                 1.6549
# Atomization energy (eV/atom):     -4.5001
# Relative energy1 (eV/atom):       0.0337
# Relative energy2 (eV/atom):       0.1943
# Volume of the unit cell (A^3):    232.96
# Density (g/cm^3):                 1.7043
# Tool:                             VASP
# Pseudopotential:                  PAW
# Note:                             ENCUT=400eV, k-spacing_relax=0.20/Angstrom, k-spacing_bandgap=0.15/Angstrom
# Created by:                       C.Kim, T.D.Huan, S.Krishnan, R. Ramprasad