data_1
_audit_creation_method   'Generated by vasp2cif'
_cell_length_a    7.7476373048
_cell_length_b    4.31484457702
_cell_length_c    6.73934314901
_cell_angle_alpha    78.1851331776
_cell_angle_beta    81.4346560063
_cell_angle_gamma    95.7993301595

_symmetry_space_group_name_H-M    'P 1'
loop_
_atom_site_label
_atom_site_type_symbol
_atom_site_fract_x
_atom_site_fract_y
_atom_site_fract_z
_atom_site_occupancy
C1   C   0.584156019209892   0.004482070980771   0.270714372059444   1.0
C2   C   0.542485164960212   0.996007858693581   0.501097786524824   1.0
C3   C   0.685514549294084   0.184947011015723   0.578626123370178   1.0
H4   H   0.806788153821131   0.077870393565824   0.556979940624650   1.0
H5   H   0.650455652447555   0.178582344297560   0.742941358120163   1.0
H6   H   0.713596751428312   0.433957725140885   0.493069774932849   1.0
H7   H   0.341767914381201   0.145048273997560   0.702359785162542   1.0
H8   H   0.520016223540182   0.750679424970777   0.591025242954530   1.0
H9   H   0.475670427116590   0.882829795680813   0.216509108030010   1.0
H10   H   0.612669314132788   0.250719149874953   0.179519210352780   1.0
H11   H   0.700477133418801   0.886139814432141   0.240029667130223   1.0
H12   H   0.354797075266973   0.332790699891809   0.457907232551982   1.0
H13   H   0.262096171900339   0.957441706013313   0.533311318255969   1.0
Cl14   Cl   0.348612276464316   0.455938359964819   0.949167039058828   1.0
Cl15   Cl   0.950580405062375   0.796334613357295   0.888368717745465   1.0
Cl16   Cl   0.103554934549173   0.637770870486769   0.392638298299602   1.0
N17   N   0.364673754507244   0.116892063394751   0.552155238206630   1.0
Ge18   Ge   0.042748078498903   0.352587824240643   0.111009786619263   1.0




# HOIP entry ID:                    0128
# Khazana ID:                       1978
# Organic cation source:            C.C.Stoumpos et al., J. Am. Chem. Soc. 137, 6804 (2015)
# Label:                            Isopropylammonium Germanium Chloride
# Material class:                   Hybrid organic-inorganic perovskite ( MC_ino )
# Geometry class:                   Bulk crystalline materials ( GC_cry )
# Organic cation chemical formula:  (CH3)2CHNH3
# Number of atom types:             5
# Total number of atoms:            18
# Atom types:                       C H N  Ge Cl
# Number of each atom:              3 10 1  1 3
# Bandgap, HSE06 (eV):              4.6456
# Bandgap, GGA (eV):                3.6317
# Kpoint for VBM:                   0, 0.3333, 0.2857
# Kpoint for CBM:                   0, 0, 0.4286
# Dielectric constant, electronic:  2.969
# Dielectric constant, ionic:       2.6687
# Dielectric constant, total:       5.6378
# Refractive index:                 1.7231
# Atomization energy (eV/atom):     -4.501
# Relative energy1 (eV/atom):       0.0327
# Relative energy2 (eV/atom):       0.1934
# Volume of the unit cell (A^3):    216.04
# Density (g/cm^3):                 1.8377
# Tool:                             VASP
# Pseudopotential:                  PAW
# Note:                             ENCUT=400eV, k-spacing_relax=0.20/Angstrom, k-spacing_bandgap=0.15/Angstrom
# Created by:                       C.Kim, T.D.Huan, S.Krishnan, R. Ramprasad