data_1
_audit_creation_method   'Generated by vasp2cif'
_cell_length_a    6.61160770506
_cell_length_b    4.38041749482
_cell_length_c    7.5544599748
_cell_angle_alpha    90.558770391
_cell_angle_beta    83.3053023559
_cell_angle_gamma    99.6927388988

_symmetry_space_group_name_H-M    'P 1'
loop_
_atom_site_label
_atom_site_type_symbol
_atom_site_fract_x
_atom_site_fract_y
_atom_site_fract_z
_atom_site_occupancy
C1   C   0.444953291281209   0.655177213508907   0.690165773935746   1.0
C2   C   0.433349446720492   0.462852407987278   0.521377226046503   1.0
C3   C   0.324144539738661   0.600155718715264   0.381962961700509   1.0
H4   H   0.172559538456611   0.634912715310222   0.444510364313835   1.0
H5   H   0.303119722784977   0.448905824559951   0.267856479828367   1.0
H6   H   0.409224199341374   0.824968281275339   0.332626216204616   1.0
H7   H   0.645808098698865   0.302866642967558   0.321603852919573   1.0
H8   H   0.356944601039579   0.226398668528922   0.554097724093523   1.0
H9   H   0.524092772592411   0.556719430208602   0.788553587402298   1.0
H10   H   0.524289878089967   0.891309759216753   0.661178725911661   1.0
H11   H   0.287990654922567   0.668526876376760   0.749895796626802   1.0
H12   H   0.743157259820897   0.642019568617066   0.401109831931443   1.0
H13   H   0.733461819155600   0.323138029204216   0.522830577194974   1.0
Cl14   Cl   0.570249783440580   0.182943691828491   0.030710814746463   1.0
Cl15   Cl   0.989583910754391   0.956761035353374   0.185248592066451   1.0
Cl16   Cl   0.949154916195951   0.004422700480816   0.678402091601164   1.0
N17   N   0.654094456989029   0.429727266221761   0.437916176400371   1.0
Ge18   Ge   0.935901109976804   0.318324169638615   0.954443207075556   1.0




# HOIP entry ID:                    0129
# Khazana ID:                       1979
# Organic cation source:            C.C.Stoumpos et al., J. Am. Chem. Soc. 137, 6804 (2015)
# Label:                            Isopropylammonium Germanium Chloride
# Material class:                   Hybrid organic-inorganic perovskite ( MC_ino )
# Geometry class:                   Bulk crystalline materials ( GC_cry )
# Organic cation chemical formula:  (CH3)2CHNH3
# Number of atom types:             5
# Total number of atoms:            18
# Atom types:                       C H N  Ge Cl
# Number of each atom:              3 10 1  1 3
# Bandgap, HSE06 (eV):              4.8314
# Bandgap, GGA (eV):                3.801
# Kpoint for VBM:                   0.0833, 0.3333, 0.4
# Kpoint for CBM:                   0.0833, 0, 0.4
# Dielectric constant, electronic:  2.9835
# Dielectric constant, ionic:       2.8736
# Dielectric constant, total:       5.8571
# Refractive index:                 1.7273
# Atomization energy (eV/atom):     -4.4972
# Relative energy1 (eV/atom):       0.0365
# Relative energy2 (eV/atom):       0.1972
# Volume of the unit cell (A^3):    214.18
# Density (g/cm^3):                 1.8537
# Tool:                             VASP
# Pseudopotential:                  PAW
# Note:                             ENCUT=400eV, k-spacing_relax=0.20/Angstrom, k-spacing_bandgap=0.15/Angstrom
# Created by:                       C.Kim, T.D.Huan, S.Krishnan, R. Ramprasad