data_1
_audit_creation_method   'Generated by vasp2cif'
_cell_length_a    6.01012291825
_cell_length_b    5.85067494592
_cell_length_c    5.79278518274
_cell_angle_alpha    78.2782879994
_cell_angle_beta    102.69270889
_cell_angle_gamma    99.4258333666

_symmetry_space_group_name_H-M    'P 1'
loop_
_atom_site_label
_atom_site_type_symbol
_atom_site_fract_x
_atom_site_fract_y
_atom_site_fract_z
_atom_site_occupancy
Cl1   Cl   0.494434772501478   0.932167054990195   0.992694865786497   1.0
Cl2   Cl   0.981809401479850   0.952667391894174   0.455337151143752   1.0
Cl3   Cl   0.940471108111495   0.437489481324349   0.960478514887171   1.0
H4   H   0.528152863055539   0.686339362468338   0.367144090167734   1.0
H5   H   0.694771549194186   0.363452357891418   0.296594568057842   1.0
H6   H   0.672383979117299   0.544128304424518   0.620537705760725   1.0
H7   H   0.164126935471195   0.481195221956710   0.464355055020576   1.0
H8   H   0.324520958380887   0.333160738227988   0.734994461540950   1.0
H9   H   0.322736247594101   0.644915502280575   0.690535181121739   1.0
H10   H   0.388838201457965   0.335775264271326   0.209276513910908   1.0
H11   H   0.519478702118072   0.168150071831562   0.485418489101662   1.0
C12   C   0.317055362935030   0.495303085190535   0.604339640421621   1.0
C13   C   0.533444020144820   0.333550538507794   0.359979037418285   1.0
Ge14   Ge   0.913250813610425   0.002620023553099   0.026437442636663   1.0
N15   N   0.525325244637500   0.530586115226619   0.489249145480166   1.0




# HOIP entry ID:                    0132
# Khazana ID:                       1982
# Organic cation source:            B.Saparov et al., Chem. Rev. 116, 4558 (2016)
# Label:                            Dimethylammonium Germanium Chloride
# Material class:                   Hybrid organic-inorganic perovskite ( MC_ino )
# Geometry class:                   Bulk crystalline materials ( GC_cry )
# Organic cation chemical formula:  (CH3)2NH2
# Number of atom types:             5
# Total number of atoms:            15
# Atom types:                       C H N  Ge Cl
# Number of each atom:              2 8 1  1 3
# Bandgap, HSE06 (eV):              3.7984
# Bandgap, GGA (eV):                2.9188
# Kpoint for VBM:                   0.5, 0.5, 0.5
# Kpoint for CBM:                   0.4474, 0.5, 0.4474
# Dielectric constant, electronic:  3.1337
# Dielectric constant, ionic:       2.5731
# Dielectric constant, total:       5.7068
# Refractive index:                 1.7702
# Atomization energy (eV/atom):     -4.3771
# Relative energy1 (eV/atom):       0.0839
# Relative energy2 (eV/atom):       0.2767
# Volume of the unit cell (A^3):    193.05
# Density (g/cm^3):                 1.9359
# Tool:                             VASP
# Pseudopotential:                  PAW
# Note:                             ENCUT=400eV, k-spacing_relax=0.20/Angstrom, k-spacing_bandgap=0.15/Angstrom
# Created by:                       C.Kim, T.D.Huan, S.Krishnan, R. Ramprasad