data_1
_audit_creation_method   'Generated by vasp2cif'
_cell_length_a    5.72364520138
_cell_length_b    4.11605849086
_cell_length_c    8.38793680677
_cell_angle_alpha    88.6812021956
_cell_angle_beta    79.878431419
_cell_angle_gamma    85.7410071372

_symmetry_space_group_name_H-M    'P 1'
loop_
_atom_site_label
_atom_site_type_symbol
_atom_site_fract_x
_atom_site_fract_y
_atom_site_fract_z
_atom_site_occupancy
Cl1   Cl   0.991587278086079   0.106131089611324   0.811586927737281   1.0
Cl2   Cl   0.511613927661344   0.620458285384821   0.047143717915162   1.0
Cl3   Cl   0.886355766346142   0.102405514128179   0.282622788031965   1.0
H4   H   0.214610099366631   0.334450233983809   0.530192093745029   1.0
H5   H   0.625428000701852   0.441877419541420   0.411805925953026   1.0
H6   H   0.558228374321367   0.832389606257024   0.407397881577140   1.0
H7   H   0.522914070714499   0.413011606115127   0.704398501401997   1.0
H8   H   0.742169828758527   0.696332767719724   0.638126288102058   1.0
H9   H   0.438295904097266   0.837671327913455   0.706786595867285   1.0
H10   H   0.245306421857571   0.532654724824738   0.335441499264775   1.0
H11   H   0.139315075011361   0.759768957153547   0.516305387296939   1.0
C12   C   0.557171442340440   0.645420911860626   0.643262084061575   1.0
C13   C   0.257363862278012   0.557071497091854   0.462184720674614   1.0
Ge14   Ge   0.929582284394506   0.537293464917688   0.030098174119530   1.0
N15   N   0.509467664064367   0.624262593496532   0.472397414251574   1.0




# HOIP entry ID:                    0133
# Khazana ID:                       1983
# Organic cation source:            B.Saparov et al., Chem. Rev. 116, 4558 (2016)
# Label:                            Dimethylammonium Germanium Chloride
# Material class:                   Hybrid organic-inorganic perovskite ( MC_ino )
# Geometry class:                   Bulk crystalline materials ( GC_cry )
# Organic cation chemical formula:  (CH3)2NH2
# Number of atom types:             5
# Total number of atoms:            15
# Atom types:                       C H N  Ge Cl
# Number of each atom:              2 8 1  1 3
# Bandgap, HSE06 (eV):              4.2508
# Bandgap, GGA (eV):                3.2947
# Kpoint for VBM:                   0.5, -0.2, 0.3
# Kpoint for CBM:                   0.5, 0, 0.5
# Dielectric constant, electronic:  3.1627
# Dielectric constant, ionic:       5.1766
# Dielectric constant, total:       8.3393
# Refractive index:                 1.7784
# Atomization energy (eV/atom):     -4.3606
# Relative energy1 (eV/atom):       0.1004
# Relative energy2 (eV/atom):       0.2932
# Volume of the unit cell (A^3):    193.99
# Density (g/cm^3):                 1.9265
# Tool:                             VASP
# Pseudopotential:                  PAW
# Note:                             ENCUT=400eV, k-spacing_relax=0.20/Angstrom, k-spacing_bandgap=0.15/Angstrom
# Created by:                       C.Kim, T.D.Huan, S.Krishnan, R. Ramprasad