data_1
_audit_creation_method   'Generated by vasp2cif'
_cell_length_a    5.81406831055
_cell_length_b    4.06190242164
_cell_length_c    8.24202587109
_cell_angle_alpha    91.3595388655
_cell_angle_beta    80.887178975
_cell_angle_gamma    97.382681476

_symmetry_space_group_name_H-M    'P 1'
loop_
_atom_site_label
_atom_site_type_symbol
_atom_site_fract_x
_atom_site_fract_y
_atom_site_fract_z
_atom_site_occupancy
Cl1   Cl   0.046148522982392   0.118996814719068   0.182099315368440   1.0
Cl2   Cl   0.511240935961034   0.701025917659663   0.938857833367749   1.0
Cl3   Cl   0.124298268741676   0.105806534873267   0.708521627832518   1.0
H4   H   0.760395687053879   0.315325393873451   0.440039743663966   1.0
H5   H   0.382112252572533   0.468796858134631   0.586821561674235   1.0
H6   H   0.502824296049546   0.850508531273675   0.604325424917342   1.0
H7   H   0.447617609049288   0.480809881920685   0.292982241305694   1.0
H8   H   0.294455109915503   0.815655428312631   0.375437151624496   1.0
H9   H   0.602244898920247   0.887517300466556   0.296565009307272   1.0
H10   H   0.757928927440737   0.441464700696265   0.651089418677905   1.0
H11   H   0.887125057358737   0.719627268308599   0.487872428975464   1.0
C12   C   0.460778232459688   0.714024745464584   0.360832525878585   1.0
C13   C   0.747808071948619   0.519534355084588   0.527498008976089   1.0
Ge14   Ge   0.095201021572272   0.607312898809532   0.961879841562002   1.0
N15   N   0.514581107973868   0.644993370402894   0.529227866868212   1.0




# HOIP entry ID:                    0134
# Khazana ID:                       1984
# Organic cation source:            B.Saparov et al., Chem. Rev. 116, 4558 (2016)
# Label:                            Dimethylammonium Germanium Chloride
# Material class:                   Hybrid organic-inorganic perovskite ( MC_ino )
# Geometry class:                   Bulk crystalline materials ( GC_cry )
# Organic cation chemical formula:  (CH3)2NH2
# Number of atom types:             5
# Total number of atoms:            15
# Atom types:                       C H N  Ge Cl
# Number of each atom:              2 8 1  1 3
# Bandgap, HSE06 (eV):              4.2119
# Bandgap, GGA (eV):                3.2551
# Kpoint for VBM:                   0.5, 0.2, 0.5
# Kpoint for CBM:                   0.5, 0, 0.5
# Dielectric constant, electronic:  3.2382
# Dielectric constant, ionic:       14.1437
# Dielectric constant, total:       17.3818
# Refractive index:                 1.7995
# Atomization energy (eV/atom):     -4.36
# Relative energy1 (eV/atom):       0.101
# Relative energy2 (eV/atom):       0.2938
# Volume of the unit cell (A^3):    190.59
# Density (g/cm^3):                 1.9609
# Tool:                             VASP
# Pseudopotential:                  PAW
# Note:                             ENCUT=400eV, k-spacing_relax=0.20/Angstrom, k-spacing_bandgap=0.15/Angstrom
# Created by:                       C.Kim, T.D.Huan, S.Krishnan, R. Ramprasad