data_1
_audit_creation_method   'Generated by vasp2cif'
_cell_length_a    7.82880104652
_cell_length_b    4.2514519049
_cell_length_c    6.84868635878
_cell_angle_alpha    121.002646738
_cell_angle_beta    94.2343147992
_cell_angle_gamma    93.438499993

_symmetry_space_group_name_H-M    'P 1'
loop_
_atom_site_label
_atom_site_type_symbol
_atom_site_fract_x
_atom_site_fract_y
_atom_site_fract_z
_atom_site_occupancy
Cl1   Cl   0.177318255064016   0.090298785192829   0.948641247509400   1.0
Cl2   Cl   0.924914961434460   0.297914528745537   0.487911287419657   1.0
Cl3   Cl   0.677804181839129   0.951394110144541   0.886775716581013   1.0
H4   H   0.452541439867161   0.494654800676699   0.272413806683097   1.0
H5   H   0.557809265971706   0.064039963344897   0.639706798190559   1.0
H6   H   0.598536604802689   0.279970061142635   0.504915707904232   1.0
H7   H   0.253326019186616   0.948908034364720   0.512031527941922   1.0
H8   H   0.326906066233541   0.429786992525123   0.653069521029011   1.0
H9   H   0.288253969954006   0.153872984775724   0.345437979049613   1.0
H10   H   0.676712277114966   0.658040540290031   0.307502662780841   1.0
H11   H   0.520247708777831   0.730708512086629   0.135246480611087   1.0
C12   C   0.332007679695458   0.158481761063705   0.501519949769445   1.0
C13   C   0.544172477516952   0.709657950300674   0.286446015148336   1.0
Ge14   Ge   0.945538333223908   0.633049925335762   0.900858148938816   1.0
N15   N   0.516470759317421   0.071741050010488   0.494563150442893   1.0




# HOIP entry ID:                    0135
# Khazana ID:                       1985
# Organic cation source:            B.Saparov et al., Chem. Rev. 116, 4558 (2016)
# Label:                            Dimethylammonium Germanium Chloride
# Material class:                   Hybrid organic-inorganic perovskite ( MC_ino )
# Geometry class:                   Bulk crystalline materials ( GC_cry )
# Organic cation chemical formula:  (CH3)2NH2
# Number of atom types:             5
# Total number of atoms:            15
# Atom types:                       C H N  Ge Cl
# Number of each atom:              2 8 1  1 3
# Bandgap, HSE06 (eV):              4.6939
# Bandgap, GGA (eV):                3.6897
# Kpoint for VBM:                   -0.4, 0.25, 0.1875
# Kpoint for CBM:                   0.5, 0, 0.5
# Dielectric constant, electronic:  3.069
# Dielectric constant, ionic:       2.6079
# Dielectric constant, total:       5.6769
# Refractive index:                 1.7518
# Atomization energy (eV/atom):     -4.365
# Relative energy1 (eV/atom):       0.096
# Relative energy2 (eV/atom):       0.2888
# Volume of the unit cell (A^3):    193.57
# Density (g/cm^3):                 1.9307
# Tool:                             VASP
# Pseudopotential:                  PAW
# Note:                             ENCUT=400eV, k-spacing_relax=0.20/Angstrom, k-spacing_bandgap=0.15/Angstrom
# Created by:                       C.Kim, T.D.Huan, S.Krishnan, R. Ramprasad