data_1
_audit_creation_method   'Generated by vasp2cif'
_cell_length_a    5.92473145733
_cell_length_b    4.40318705905
_cell_length_c    7.53282501427
_cell_angle_alpha    80.2271165564
_cell_angle_beta    85.0213404945
_cell_angle_gamma    82.7806276799

_symmetry_space_group_name_H-M    'P 1'
loop_
_atom_site_label
_atom_site_type_symbol
_atom_site_fract_x
_atom_site_fract_y
_atom_site_fract_z
_atom_site_occupancy
Cl1   Cl   0.960716340310974   0.171140807715368   0.811538751058784   1.0
Cl2   Cl   0.498600084249382   0.819686084725767   0.059465999688939   1.0
Cl3   Cl   0.903202279529054   0.998442795923609   0.329962413550398   1.0
H4   H   0.298235790150983   0.129566748843175   0.532568143314663   1.0
H5   H   0.667471141340165   0.341187097983351   0.483011469448066   1.0
H6   H   0.540428824442941   0.678697332914538   0.394143896213969   1.0
H7   H   0.475093170594008   0.360327194594411   0.774251352497757   1.0
H8   H   0.598691563955327   0.711913269302364   0.696617937173407   1.0
H9   H   0.298798475550555   0.699460536708301   0.682850999714148   1.0
H10   H   0.382675649910631   0.259157524933137   0.299269986846937   1.0
H11   H   0.176132911750848   0.492078271664752   0.421437711477523   1.0
C12   C   0.468043076778436   0.571542339876622   0.675207574435042   1.0
C13   C   0.329070412374484   0.327208872950592   0.430053748565854   1.0
Ge14   Ge   0.911554647563683   0.738753593671341   0.051919863771978   1.0
N15   N   0.515509327053167   0.484889381626161   0.488811296361476   1.0




# HOIP entry ID:                    0136
# Khazana ID:                       1986
# Organic cation source:            B.Saparov et al., Chem. Rev. 116, 4558 (2016)
# Label:                            Dimethylammonium Germanium Chloride
# Material class:                   Hybrid organic-inorganic perovskite ( MC_ino )
# Geometry class:                   Bulk crystalline materials ( GC_cry )
# Organic cation chemical formula:  (CH3)2NH2
# Number of atom types:             5
# Total number of atoms:            15
# Atom types:                       C H N  Ge Cl
# Number of each atom:              2 8 1  1 3
# Bandgap, HSE06 (eV):              4.7175
# Bandgap, GGA (eV):                3.7128
# Kpoint for VBM:                   0.5, 0.3889, 0.3
# Kpoint for CBM:                   0.4286, 0, 0.4
# Dielectric constant, electronic:  3.0684
# Dielectric constant, ionic:       3.1043
# Dielectric constant, total:       6.1727
# Refractive index:                 1.7517
# Atomization energy (eV/atom):     -4.3655
# Relative energy1 (eV/atom):       0.0955
# Relative energy2 (eV/atom):       0.2883
# Volume of the unit cell (A^3):    191.7
# Density (g/cm^3):                 1.9496
# Tool:                             VASP
# Pseudopotential:                  PAW
# Note:                             ENCUT=400eV, k-spacing_relax=0.20/Angstrom, k-spacing_bandgap=0.15/Angstrom
# Created by:                       C.Kim, T.D.Huan, S.Krishnan, R. Ramprasad