data_1
_audit_creation_method   'Generated by vasp2cif'
_cell_length_a    5.78818994138
_cell_length_b    6.05419942677
_cell_length_c    6.03839151437
_cell_angle_alpha    91.1287999868
_cell_angle_beta    103.655176543
_cell_angle_gamma    103.956239204

_symmetry_space_group_name_H-M    'P 1'
loop_
_atom_site_label
_atom_site_type_symbol
_atom_site_fract_x
_atom_site_fract_y
_atom_site_fract_z
_atom_site_occupancy
C1   C   0.645914372956760   0.507756514846484   0.521454811275767   1.0
C2   C   0.505348598632651   0.626039729858022   0.641357730131084   1.0
H3   H   0.332147323376148   0.605456490295552   0.904334462308746   1.0
H4   H   0.328177909986458   0.884507862440309   0.623679648341998   1.0
H5   H   0.781891808936187   0.445210963157265   0.644154079074596   1.0
H6   H   0.738363777786311   0.620350689930596   0.413040245999234   1.0
H7   H   0.516917546423912   0.360855866733431   0.413938436508261   1.0
H8   H   0.479543603147548   0.866585839918329   0.411786339874197   1.0
H9   H   0.486713291739001   0.397843249350466   0.884410628222085   1.0
Cl10   Cl   0.016109809521275   0.092448301920278   0.517463012807809   1.0
Cl11   Cl   0.018638848496849   0.499831738101619   0.109772445741520   1.0
Cl12   Cl   0.470415922900983   0.053505569145209   0.069527972959541   1.0
N13   N   0.444749406542016   0.543610542392514   0.827272357580171   1.0
N14   N   0.439613316647083   0.808734384197557   0.558658871512556   1.0
Ge15   Ge   0.922524462906757   0.091312257712325   0.108158957662440   1.0




# HOIP entry ID:                    0137
# Khazana ID:                       1987
# Organic cation source:            C.C.Stoumpos et al., J. Am. Chem. Soc. 137, 6804 (2015)
# Label:                            Acetamidinium Germanium Chloride
# Material class:                   Hybrid organic-inorganic perovskite ( MC_ino )
# Geometry class:                   Bulk crystalline materials ( GC_cry )
# Organic cation chemical formula:  CH3C(NH2)2
# Number of atom types:             5
# Total number of atoms:            15
# Atom types:                       C H N  Ge Cl
# Number of each atom:              2 7 2  1 3
# Bandgap, HSE06 (eV):              3.9438
# Bandgap, GGA (eV):                3.0402
# Kpoint for VBM:                   0.5, 0.5, 0.5
# Kpoint for CBM:                   0.5, 0.3571, 0.3571
# Dielectric constant, electronic:  3.1753
# Dielectric constant, ionic:       2.7986
# Dielectric constant, total:       5.9739
# Refractive index:                 1.7819
# Atomization energy (eV/atom):     -4.6823
# Relative energy1 (eV/atom):       0.2048
# Relative energy2 (eV/atom):       0.3977
# Volume of the unit cell (A^3):    198.89
# Density (g/cm^3):                 1.9876
# Tool:                             VASP
# Pseudopotential:                  PAW
# Note:                             ENCUT=400eV, k-spacing_relax=0.20/Angstrom, k-spacing_bandgap=0.15/Angstrom
# Created by:                       C.Kim, T.D.Huan, S.Krishnan, R. Ramprasad