data_1
_audit_creation_method   'Generated by vasp2cif'
_cell_length_a    5.87743406146
_cell_length_b    6.06931354273
_cell_length_c    5.72373883668
_cell_angle_alpha    83.2114694624
_cell_angle_beta    102.656240069
_cell_angle_gamma    91.1698860682

_symmetry_space_group_name_H-M    'P 1'
loop_
_atom_site_label
_atom_site_type_symbol
_atom_site_fract_x
_atom_site_fract_y
_atom_site_fract_z
_atom_site_occupancy
C1   C   0.582842769474951   0.461676387684669   0.422892436091644   1.0
C2   C   0.503564152388940   0.623018924426972   0.567326452972978   1.0
H3   H   0.283407417095262   0.668082447872777   0.793980208175370   1.0
H4   H   0.566654276994967   0.931039677631112   0.680005853398619   1.0
H5   H   0.606601729700344   0.545276729807675   0.250295517662167   1.0
H6   H   0.459119062160923   0.326972871636954   0.392100865569319   1.0
H7   H   0.751628897279772   0.391020337011064   0.521215429659712   1.0
H8   H   0.726707846463384   0.862434845925229   0.478116448861890   1.0
H9   H   0.269115383326657   0.412637144725835   0.682533493789911   1.0
Cl10   Cl   0.087928072475698   0.081446528708795   0.538117466677491   1.0
Cl11   Cl   0.040814028942776   0.682236391204334   0.097214614173652   1.0
Cl12   Cl   0.623996672764299   0.108407722668339   0.018320434167549   1.0
N13   N   0.346178868115679   0.563253866259778   0.696499050387914   1.0
N14   N   0.597101871678525   0.823000080220929   0.566613527545343   1.0
Ge15   Ge   0.043038951137788   0.079746044215504   0.094628200866431   1.0




# HOIP entry ID:                    0138
# Khazana ID:                       1988
# Organic cation source:            C.C.Stoumpos et al., J. Am. Chem. Soc. 137, 6804 (2015)
# Label:                            Acetamidinium Germanium Chloride
# Material class:                   Hybrid organic-inorganic perovskite ( MC_ino )
# Geometry class:                   Bulk crystalline materials ( GC_cry )
# Organic cation chemical formula:  CH3C(NH2)2
# Number of atom types:             5
# Total number of atoms:            15
# Atom types:                       C H N  Ge Cl
# Number of each atom:              2 7 2  1 3
# Bandgap, HSE06 (eV):              3.7624
# Bandgap, GGA (eV):                2.8878
# Kpoint for VBM:                   0.5, 0.5, 0.5
# Kpoint for CBM:                   0.5, 0.5, 0.5
# Dielectric constant, electronic:  3.2355
# Dielectric constant, ionic:       3.2535
# Dielectric constant, total:       6.489
# Refractive index:                 1.7988
# Atomization energy (eV/atom):     -4.6814
# Relative energy1 (eV/atom):       0.2057
# Relative energy2 (eV/atom):       0.3985
# Volume of the unit cell (A^3):    197.82
# Density (g/cm^3):                 1.9984
# Tool:                             VASP
# Pseudopotential:                  PAW
# Note:                             ENCUT=400eV, k-spacing_relax=0.20/Angstrom, k-spacing_bandgap=0.15/Angstrom
# Created by:                       C.Kim, T.D.Huan, S.Krishnan, R. Ramprasad