data_1
_audit_creation_method   'Generated by vasp2cif'
_cell_length_a    6.03529718515
_cell_length_b    4.12385931167
_cell_length_c    7.93694630075
_cell_angle_alpha    89.7142200095
_cell_angle_beta    96.9862699349
_cell_angle_gamma    102.065142436

_symmetry_space_group_name_H-M    'P 1'
loop_
_atom_site_label
_atom_site_type_symbol
_atom_site_fract_x
_atom_site_fract_y
_atom_site_fract_z
_atom_site_occupancy
C1   C   0.404308119221611   0.884329182222963   0.611273937790401   1.0
C2   C   0.541086178018382   0.829899864366119   0.472708195017702   1.0
H3   H   0.369064220777190   0.080216562288989   0.299595903918856   1.0
H4   H   0.581337437739542   0.914984509360202   0.221700617766622   1.0
H5   H   0.309446132644084   0.645304152596459   0.649784737126062   1.0
H6   H   0.516961024956863   0.999601948905934   0.722893190041887   1.0
H7   H   0.283315951268477   0.038822152847480   0.568609485080188   1.0
H8   H   0.802381357474673   0.612218449756547   0.414796037413865   1.0
H9   H   0.744395992275045   0.576168782153417   0.622496973702816   1.0
Cl10   Cl   0.602137130339493   0.527108860288571   0.001383980109686   1.0
Cl11   Cl   0.036726552917074   0.265354248935480   0.280384394437057   1.0
Cl12   Cl   0.997336992173494   0.234160871610300   0.790670145768850   1.0
N13   N   0.496927400860002   0.952602342038908   0.321040343200742   1.0
N14   N   0.703690549045326   0.656385319902213   0.503888250460506   1.0
Ge15   Ge   0.012134960288840   0.637142752726341   0.022203808164811   1.0




# HOIP entry ID:                    0139
# Khazana ID:                       1989
# Organic cation source:            C.C.Stoumpos et al., J. Am. Chem. Soc. 137, 6804 (2015)
# Label:                            Acetamidinium Germanium Chloride
# Material class:                   Hybrid organic-inorganic perovskite ( MC_ino )
# Geometry class:                   Bulk crystalline materials ( GC_cry )
# Organic cation chemical formula:  CH3C(NH2)2
# Number of atom types:             5
# Total number of atoms:            15
# Atom types:                       C H N  Ge Cl
# Number of each atom:              2 7 2  1 3
# Bandgap, HSE06 (eV):              4.654
# Bandgap, GGA (eV):                3.6065
# Kpoint for VBM:                   0.3571, 0.2, 0.5
# Kpoint for CBM:                   0.5, 0, 0.5
# Dielectric constant, electronic:  3.2279
# Dielectric constant, ionic:       2.9128
# Dielectric constant, total:       6.1407
# Refractive index:                 1.7966
# Atomization energy (eV/atom):     -4.6814
# Relative energy1 (eV/atom):       0.2057
# Relative energy2 (eV/atom):       0.3985
# Volume of the unit cell (A^3):    191.7
# Density (g/cm^3):                 2.0622
# Tool:                             VASP
# Pseudopotential:                  PAW
# Note:                             ENCUT=400eV, k-spacing_relax=0.20/Angstrom, k-spacing_bandgap=0.15/Angstrom
# Created by:                       C.Kim, T.D.Huan, S.Krishnan, R. Ramprasad