data_1
_audit_creation_method   'Generated by vasp2cif'
_cell_length_a    8.25524964974
_cell_length_b    3.85898032946
_cell_length_c    6.24863512393
_cell_angle_alpha    88.3944885072
_cell_angle_beta    87.5800696024
_cell_angle_gamma    88.5896380389

_symmetry_space_group_name_H-M    'P 1'
loop_
_atom_site_label
_atom_site_type_symbol
_atom_site_fract_x
_atom_site_fract_y
_atom_site_fract_z
_atom_site_occupancy
C1   C   0.615637582094188   0.920043943912312   0.557200072072980   1.0
C2   C   0.488802463511782   0.743752792055439   0.437700359008375   1.0
H3   H   0.325796448772493   0.746154677429196   0.690806243232416   1.0
H4   H   0.261984969965056   0.522606330611559   0.474737939308696   1.0
H5   H   0.700552292570535   0.723696665130156   0.621060677455439   1.0
H6   H   0.685782469547306   0.095329934051492   0.451797340095204   1.0
H7   H   0.561015950541787   0.060425224335674   0.692044554143095   1.0
H8   H   0.439131237649754   0.529345478234582   0.150149969258081   1.0
H9   H   0.624226957139349   0.734429377883053   0.157758967192102   1.0
Cl10   Cl   0.022129928305667   0.205693633865863   0.457822848270183   1.0
Cl11   Cl   0.267176060709971   0.192500016457139   0.964736419614660   1.0
Cl12   Cl   0.803155272058582   0.223003286403845   0.981529536409937   1.0
N13   N   0.350477722035059   0.661797583638645   0.539854711045002   1.0
N14   N   0.520035488301481   0.658919664807556   0.235909217991711   1.0
Ge15   Ge   0.025355156797076   0.878991391183483   0.129001144901991   1.0




# HOIP entry ID:                    0141
# Khazana ID:                       1991
# Organic cation source:            C.C.Stoumpos et al., J. Am. Chem. Soc. 137, 6804 (2015)
# Label:                            Acetamidinium Germanium Chloride
# Material class:                   Hybrid organic-inorganic perovskite ( MC_ino )
# Geometry class:                   Bulk crystalline materials ( GC_cry )
# Organic cation chemical formula:  CH3C(NH2)2
# Number of atom types:             5
# Total number of atoms:            15
# Atom types:                       C H N  Ge Cl
# Number of each atom:              2 7 2  1 3
# Bandgap, HSE06 (eV):              4.8574
# Bandgap, GGA (eV):                3.7574
# Kpoint for VBM:                   0.5, 0.2, 0
# Kpoint for CBM:                   0, 0.5, 0
# Dielectric constant, electronic:  3.0865
# Dielectric constant, ionic:       3.2053
# Dielectric constant, total:       6.2917
# Refractive index:                 1.7568
# Atomization energy (eV/atom):     -4.6666
# Relative energy1 (eV/atom):       0.2205
# Relative energy2 (eV/atom):       0.4133
# Volume of the unit cell (A^3):    198.75
# Density (g/cm^3):                 1.989
# Tool:                             VASP
# Pseudopotential:                  PAW
# Note:                             ENCUT=400eV, k-spacing_relax=0.20/Angstrom, k-spacing_bandgap=0.15/Angstrom
# Created by:                       C.Kim, T.D.Huan, S.Krishnan, R. Ramprasad