data_1
_audit_creation_method   'Generated by vasp2cif'
_cell_length_a    5.55303082822
_cell_length_b    5.47088945794
_cell_length_c    5.58001617216
_cell_angle_alpha    90.3824515494
_cell_angle_beta    98.0934365717
_cell_angle_gamma    89.6328006121

_symmetry_space_group_name_H-M    'P 1'
loop_
_atom_site_label
_atom_site_type_symbol
_atom_site_fract_x
_atom_site_fract_y
_atom_site_fract_z
_atom_site_occupancy
Cl1   Cl   0.377189536511241   0.997650451454817   0.038884188393068   1.0
Cl2   Cl   0.866077239759402   0.000504064979881   0.536123802388508   1.0
Cl3   Cl   0.921794441381505   0.473206212685897   0.005996776644051   1.0
H4   H   0.452299009269757   0.498967721453846   0.226362450129139   1.0
H5   H   0.644111348190943   0.351301150481362   0.433592409877683   1.0
H6   H   0.635174162790559   0.658056874416891   0.432658445517496   1.0
H7   H   0.236616456830394   0.328559374732580   0.539462103484882   1.0
H8   H   0.430402862789923   0.506280733452536   0.756574226210502   1.0
H9   H   0.219609883045344   0.655790279708140   0.531855313565718   1.0
C10   C   0.338079334884935   0.497811425791577   0.571576280597833   1.0
Ge11   Ge   0.935365076646567   0.017470561816855   0.992474140949462   1.0
N12   N   0.530170647899406   0.501961149025643   0.404639862240718   1.0




# HOIP entry ID:                    0142
# Khazana ID:                       1992
# Organic cation source:            T.D.Huan et al., Phys. Rev. B 93,094105(2016)
# Label:                            Methylammonium Germanium Chloride
# Material class:                   Hybrid organic-inorganic perovskite ( MC_ino )
# Geometry class:                   Bulk crystalline materials ( GC_cry )
# Organic cation chemical formula:  CH3NH3
# Number of atom types:             5
# Total number of atoms:            12
# Atom types:                       C H N  Ge Cl
# Number of each atom:              1 6 1  1 3
# Bandgap, HSE06 (eV):              2.8141
# Bandgap, GGA (eV):                2.0343
# Kpoint for VBM:                   0.5, 0.5, 0.5
# Kpoint for CBM:                   0.5, 0.5, 0.5
# Dielectric constant, electronic:  3.7631
# Dielectric constant, ionic:       8.0435
# Dielectric constant, total:       11.8066
# Refractive index:                 1.9399
# Atomization energy (eV/atom):     -4.2183
# Relative energy1 (eV/atom):       0.1907
# Relative energy2 (eV/atom):       0.4317
# Volume of the unit cell (A^3):    167.83
# Density (g/cm^3):                 2.0881
# Tool:                             VASP
# Pseudopotential:                  PAW
# Note:                             ENCUT=400eV, k-spacing_relax=0.20/Angstrom, k-spacing_bandgap=0.15/Angstrom
# Created by:                       C.Kim, T.D.Huan, S.Krishnan, R. Ramprasad