data_1
_audit_creation_method   'Generated by vasp2cif'
_cell_length_a    5.73847562232
_cell_length_b    4.14970827944
_cell_length_c    7.37555141888
_cell_angle_alpha    96.6932083647
_cell_angle_beta    78.8382465236
_cell_angle_gamma    92.9789016151

_symmetry_space_group_name_H-M    'P 1'
loop_
_atom_site_label
_atom_site_type_symbol
_atom_site_fract_x
_atom_site_fract_y
_atom_site_fract_z
_atom_site_occupancy
Cl1   Cl   0.981056506554502   0.619529982880728   0.744374449157426   1.0
Cl2   Cl   0.529893476527384   0.253249807756646   0.078194479875378   1.0
Cl3   Cl   0.976564673649058   0.728792327640356   0.262531186050417   1.0
H4   H   0.284393843276057   0.744274612532728   0.505240423609450   1.0
H5   H   0.567247782548215   0.698770733995218   0.385969796616415   1.0
H6   H   0.404008320952002   0.978091287169562   0.338080815821478   1.0
H7   H   0.568383995993742   0.962157458790060   0.699089689844406   1.0
H8   H   0.691271007732645   0.218836263506319   0.525155449886682   1.0
H9   H   0.391404740358702   0.270879949542142   0.650851173695841   1.0
C10   C   0.529509797563030   0.098011752357557   0.591441506676560   1.0
Ge11   Ge   0.965052150469887   0.270619098153745   0.008469079817381   1.0
N12   N   0.438563704374765   0.863286725675010   0.446921948948592   1.0




# HOIP entry ID:                    0143
# Khazana ID:                       1993
# Organic cation source:            T.D.Huan et al., Phys. Rev. B 93,094105(2016)
# Label:                            Methylammonium Germanium Chloride
# Material class:                   Hybrid organic-inorganic perovskite ( MC_ino )
# Geometry class:                   Bulk crystalline materials ( GC_cry )
# Organic cation chemical formula:  CH3NH3
# Number of atom types:             5
# Total number of atoms:            12
# Atom types:                       C H N  Ge Cl
# Number of each atom:              1 6 1  1 3
# Bandgap, HSE06 (eV):              4.4064
# Bandgap, GGA (eV):                3.4379
# Kpoint for VBM:                   0.5, -0.2, 0.3333
# Kpoint for CBM:                   0.3571, 0, 0.5
# Dielectric constant, electronic:  3.2487
# Dielectric constant, ionic:       5.1551
# Dielectric constant, total:       8.4038
# Refractive index:                 1.8024
# Atomization energy (eV/atom):     -4.2021
# Relative energy1 (eV/atom):       0.2068
# Relative energy2 (eV/atom):       0.4479
# Volume of the unit cell (A^3):    171.06
# Density (g/cm^3):                 2.0486
# Tool:                             VASP
# Pseudopotential:                  PAW
# Note:                             ENCUT=400eV, k-spacing_relax=0.20/Angstrom, k-spacing_bandgap=0.15/Angstrom
# Created by:                       C.Kim, T.D.Huan, S.Krishnan, R. Ramprasad