data_1
_audit_creation_method   'Generated by vasp2cif'
_cell_length_a    7.4452711017
_cell_length_b    4.02644865724
_cell_length_c    5.5694594736
_cell_angle_alpha    84.6504829567
_cell_angle_beta    92.8070541995
_cell_angle_gamma    88.9798323424

_symmetry_space_group_name_H-M    'P 1'
loop_
_atom_site_label
_atom_site_type_symbol
_atom_site_fract_x
_atom_site_fract_y
_atom_site_fract_z
_atom_site_occupancy
Cl1   Cl   0.196187375153691   0.706486278636731   0.062915273863595   1.0
Cl2   Cl   0.916344044509273   0.104067918965093   0.476504945410895   1.0
Cl3   Cl   0.674893821222724   0.731010154086100   0.001518661689886   1.0
H4   H   0.393226935477259   0.008255941364347   0.296581304532545   1.0
H5   H   0.596223852145052   0.044978852828926   0.441869300527294   1.0
H6   H   0.507305273089379   0.358855808826014   0.261418940494195   1.0
H7   H   0.353291196158658   0.080680944951908   0.723285374169699   1.0
H8   H   0.478316252939514   0.453728026523109   0.687149997113458   1.0
H9   H   0.261649147020229   0.428760365975982   0.531654944208746   1.0
C10   C   0.384450894948451   0.293924872495900   0.598995239068685   1.0
Ge11   Ge   0.935692398996167   0.145636197997327   0.041549974753288   1.0
N12   N   0.475258808339639   0.165974637348498   0.387126044167871   1.0




# HOIP entry ID:                    0145
# Khazana ID:                       1995
# Organic cation source:            T.D.Huan et al., Phys. Rev. B 93,094105(2016)
# Label:                            Methylammonium Germanium Chloride
# Material class:                   Hybrid organic-inorganic perovskite ( MC_ino )
# Geometry class:                   Bulk crystalline materials ( GC_cry )
# Organic cation chemical formula:  CH3NH3
# Number of atom types:             5
# Total number of atoms:            12
# Atom types:                       C H N  Ge Cl
# Number of each atom:              1 6 1  1 3
# Bandgap, HSE06 (eV):              4.13
# Bandgap, GGA (eV):                3.1975
# Kpoint for VBM:                   0.5, 0.2, 0.5
# Kpoint for CBM:                   0.5, 0, 0.5
# Dielectric constant, electronic:  3.4605
# Dielectric constant, ionic:       7.4871
# Dielectric constant, total:       10.9476
# Refractive index:                 1.8602
# Atomization energy (eV/atom):     -4.201
# Relative energy1 (eV/atom):       0.208
# Relative energy2 (eV/atom):       0.449
# Volume of the unit cell (A^3):    165.99
# Density (g/cm^3):                 2.1112
# Tool:                             VASP
# Pseudopotential:                  PAW
# Note:                             ENCUT=400eV, k-spacing_relax=0.20/Angstrom, k-spacing_bandgap=0.15/Angstrom
# Created by:                       C.Kim, T.D.Huan, S.Krishnan, R. Ramprasad