data_1
_audit_creation_method   'Generated by vasp2cif'
_cell_length_a    8.17614800883
_cell_length_b    4.50667505259
_cell_length_c    7.08801019411
_cell_angle_alpha    50.1406335013
_cell_angle_beta    109.737552325
_cell_angle_gamma    120.071801068

_symmetry_space_group_name_H-M    'P 1'
loop_
_atom_site_label
_atom_site_type_symbol
_atom_site_fract_x
_atom_site_fract_y
_atom_site_fract_z
_atom_site_occupancy
Cl1   Cl   0.237287571880579   0.929570771602449   0.043130108605752   1.0
Cl2   Cl   0.944751485972020   0.700476651942118   0.592994947523110   1.0
Cl3   Cl   0.722734304515939   0.446712701784328   0.060756421555240   1.0
H4   H   0.619263761253961   0.653133974615038   0.554265159657838   1.0
H5   H   0.412493569531122   0.656200924627832   0.394519946565957   1.0
H6   H   0.414698284111424   0.339492454724947   0.706188357757817   1.0
H7   H   0.526990793903295   0.274452772052293   0.380429833837731   1.0
H8   H   0.532727449445602   0.941056970862320   0.709778392615434   1.0
H9   H   0.309985601333921   0.936001445983031   0.545101916791282   1.0
C10   C   0.460020370468989   0.126300467902901   0.546046638906581   1.0
Ge11   Ge   0.971373662604357   0.311197850686234   0.042645845236159   1.0
N12   N   0.477973144978804   0.470103013216544   0.550792430947133   1.0




# HOIP entry ID:                    0146
# Khazana ID:                       1996
# Organic cation source:            T.D.Huan et al., Phys. Rev. B 93,094105(2016)
# Label:                            Methylammonium Germanium Chloride
# Material class:                   Hybrid organic-inorganic perovskite ( MC_ino )
# Geometry class:                   Bulk crystalline materials ( GC_cry )
# Organic cation chemical formula:  CH3NH3
# Number of atom types:             5
# Total number of atoms:            12
# Atom types:                       C H N  Ge Cl
# Number of each atom:              1 6 1  1 3
# Bandgap, HSE06 (eV):              3.8642
# Bandgap, GGA (eV):                2.9874
# Kpoint for VBM:                   -0.1, -0.3333, 0.1667
# Kpoint for CBM:                   0.5, 0, 0.3889
# Dielectric constant, electronic:  3.312
# Dielectric constant, ionic:       4.4666
# Dielectric constant, total:       7.7786
# Refractive index:                 1.8199
# Atomization energy (eV/atom):     -4.2004
# Relative energy1 (eV/atom):       0.2086
# Relative energy2 (eV/atom):       0.4497
# Volume of the unit cell (A^3):    173.44
# Density (g/cm^3):                 2.0205
# Tool:                             VASP
# Pseudopotential:                  PAW
# Note:                             ENCUT=400eV, k-spacing_relax=0.20/Angstrom, k-spacing_bandgap=0.15/Angstrom
# Created by:                       C.Kim, T.D.Huan, S.Krishnan, R. Ramprasad