data_1
_audit_creation_method   'Generated by vasp2cif'
_cell_length_a    5.74930850049
_cell_length_b    5.81846853844
_cell_length_c    5.79850573045
_cell_angle_alpha    102.821626768
_cell_angle_beta    93.9483038845
_cell_angle_gamma    93.2935737464

_symmetry_space_group_name_H-M    'P 1'
loop_
_atom_site_label
_atom_site_type_symbol
_atom_site_fract_x
_atom_site_fract_y
_atom_site_fract_z
_atom_site_occupancy
C1   C   0.308710495450811   0.280191571811294   0.325703889223377   1.0
H2   H   0.066149843290063   0.251039966667172   0.564594859144755   1.0
H3   H   0.058991453646065   0.516841076655503   0.307196018487524   1.0
H4   H   0.590880437858928   0.080961154738354   0.312378691346836   1.0
H5   H   0.586396203498445   0.276327799480597   0.122610270068314   1.0
H6   H   0.279264206758498   0.526248029074416   0.121391885318410   1.0
H7   H   0.288725867795065   0.064393808224168   0.561992844521690   1.0
Cl8   Cl   0.747545012548841   0.760767256404193   0.412006692728397   1.0
Cl9   Cl   0.753420251967093   0.365679595145409   0.803120699675091   1.0
Cl10   Cl   0.234809630226870   0.784685656658922   0.833646601759284   1.0
N11   N   0.206461991948956   0.181514333071739   0.485339807237956   1.0
N12   N   0.201662586870462   0.444032410207754   0.236197058175946   1.0
N13   N   0.512048015244147   0.208989528978662   0.249538690100685   1.0
Ge14   Ge   0.813034002895826   0.790517812881788   0.838341992211774   1.0




# HOIP entry ID:                    0147
# Khazana ID:                       1997
# Organic cation source:            B.Saparov et al., Chem. Rev. 116, 4558 (2016)
# Label:                            Guanidinium Germanium Chloride
# Material class:                   Hybrid organic-inorganic perovskite ( MC_ino )
# Geometry class:                   Bulk crystalline materials ( GC_cry )
# Organic cation chemical formula:  C(NH2)3
# Number of atom types:             5
# Total number of atoms:            14
# Atom types:                       C H N  Ge Cl
# Number of each atom:              1 6 3  1 3
# Bandgap, HSE06 (eV):              4.0352
# Bandgap, GGA (eV):                3.1356
# Kpoint for VBM:                   0.5, 0.5, 0.5
# Kpoint for CBM:                   0.5, 0.5, 0.5
# Dielectric constant, electronic:  3.3168
# Dielectric constant, ionic:       3.6418
# Dielectric constant, total:       6.9586
# Refractive index:                 1.8212
# Atomization energy (eV/atom):     -4.7238
# Relative energy1 (eV/atom):       0.4013
# Relative energy2 (eV/atom):       0.6079
# Volume of the unit cell (A^3):    188.16
# Density (g/cm^3):                 2.1097
# Tool:                             VASP
# Pseudopotential:                  PAW
# Note:                             ENCUT=400eV, k-spacing_relax=0.20/Angstrom, k-spacing_bandgap=0.15/Angstrom
# Created by:                       C.Kim, T.D.Huan, S.Krishnan, R. Ramprasad