data_1
_audit_creation_method   'Generated by vasp2cif'
_cell_length_a    5.65809962348
_cell_length_b    5.64465189496
_cell_length_c    5.99080028928
_cell_angle_alpha    88.953373807
_cell_angle_beta    94.9792133919
_cell_angle_gamma    79.6632773832

_symmetry_space_group_name_H-M    'P 1'
loop_
_atom_site_label
_atom_site_type_symbol
_atom_site_fract_x
_atom_site_fract_y
_atom_site_fract_z
_atom_site_occupancy
C1   C   0.759885020731424   0.291226858043821   0.637575122913127   1.0
H2   H   0.855679007102694   0.187052406879701   0.328833179550777   1.0
H3   H   0.008592236943699   0.483651344468477   0.533735744138376   1.0
H4   H   0.502893383247908   0.144161173359812   0.781988673589574   1.0
H5   H   0.621722844357365   0.357448908347543   0.938767385446390   1.0
H6   H   0.900233438180869   0.563127005263773   0.789422326084548   1.0
H7   H   0.661312162078886   0.023561573485225   0.445058612458297   1.0
Cl8   Cl   0.307733549636488   0.798126602824063   0.575970749278547   1.0
Cl9   Cl   0.202657386559998   0.236075522222706   0.142367137973785   1.0
Cl10   Cl   0.695429365383454   0.722070579960253   0.127980219917298   1.0
N11   N   0.745732821648325   0.167154396752942   0.450184816551221   1.0
N12   N   0.902622258607948   0.456335007778648   0.655614110379545   1.0
N13   N   0.631815322167085   0.246901033762768   0.807220427634562   1.0
Ge14   Ge   0.260891203353907   0.797947586850327   0.167561494083948   1.0




# HOIP entry ID:                    0148
# Khazana ID:                       1998
# Organic cation source:            B.Saparov et al., Chem. Rev. 116, 4558 (2016)
# Label:                            Guanidinium Germanium Chloride
# Material class:                   Hybrid organic-inorganic perovskite ( MC_ino )
# Geometry class:                   Bulk crystalline materials ( GC_cry )
# Organic cation chemical formula:  C(NH2)3
# Number of atom types:             5
# Total number of atoms:            14
# Atom types:                       C H N  Ge Cl
# Number of each atom:              1 6 3  1 3
# Bandgap, HSE06 (eV):              3.6438
# Bandgap, GGA (eV):                2.7209
# Kpoint for VBM:                   0.5, 0.5, 0.5
# Kpoint for CBM:                   0.5, 0.5, 0.5
# Dielectric constant, electronic:  3.385
# Dielectric constant, ionic:       5.3498
# Dielectric constant, total:       8.7347
# Refractive index:                 1.8398
# Atomization energy (eV/atom):     -4.7207
# Relative energy1 (eV/atom):       0.4044
# Relative energy2 (eV/atom):       0.611
# Volume of the unit cell (A^3):    187.41
# Density (g/cm^3):                 2.1181
# Tool:                             VASP
# Pseudopotential:                  PAW
# Note:                             ENCUT=400eV, k-spacing_relax=0.20/Angstrom, k-spacing_bandgap=0.15/Angstrom
# Created by:                       C.Kim, T.D.Huan, S.Krishnan, R. Ramprasad