data_1
_audit_creation_method   'Generated by vasp2cif'
_cell_length_a    5.36458244364
_cell_length_b    5.4456479861
_cell_length_c    5.36126893303
_cell_angle_alpha    98.37489825
_cell_angle_beta    88.4406351011
_cell_angle_gamma    92.1695826897

_symmetry_space_group_name_H-M    'P 1'
loop_
_atom_site_label
_atom_site_type_symbol
_atom_site_fract_x
_atom_site_fract_y
_atom_site_fract_z
_atom_site_occupancy
Cl1   Cl   0.036063340119952   0.969561799912320   0.560391163872474   1.0
Cl2   Cl   0.518800696203016   0.919775044473120   0.026676949408497   1.0
Cl3   Cl   0.001723361227654   0.431875838157218   0.109969938637263   1.0
H4   H   0.338688836205087   0.509224806004184   0.349473277178305   1.0
H5   H   0.656760555055655   0.525498685401956   0.350493737027349   1.0
H6   H   0.488614689945749   0.704750220801955   0.580070340485825   1.0
H7   H   0.349004115419582   0.244607236524637   0.600808995054464   1.0
Ge8   Ge   0.980340812931175   0.968956325802544   0.026713685562051   1.0
N9   N   0.495250106974439   0.536003168845291   0.463048787701396   1.0
O10   O   0.508493485917683   0.344266874076780   0.624343125072322   1.0




# HOIP entry ID:                    0150
# Khazana ID:                       2000
# Organic cation source:            G.Kieslich et al., Chem. Sci. 6, 3430 (2015)
# Label:                            Hydroxylammonium Germanium Chloride
# Material class:                   Hybrid organic-inorganic perovskite ( MC_ino )
# Geometry class:                   Bulk crystalline materials ( GC_cry )
# Organic cation chemical formula:  OHNH3
# Number of atom types:             5
# Total number of atoms:            10
# Atom types:                        H N O Ge Cl
# Number of each atom:               4 1  1 3
# Bandgap, HSE06 (eV):              2.5629
# Bandgap, GGA (eV):                1.9337
# Kpoint for VBM:                   0.5, 0.5, 0.5
# Kpoint for CBM:                   0.4737, 0.4737, 0.4737
# Dielectric constant, electronic:  4.1438
# Dielectric constant, ionic:       10.7367
# Dielectric constant, total:       14.8806
# Refractive index:                 2.0356
# Atomization energy (eV/atom):     -3.942
# Relative energy1 (eV/atom):       0.4114
# Relative energy2 (eV/atom):       0.7006
# Volume of the unit cell (A^3):    154.8
# Density (g/cm^3):                 2.285
# Tool:                             VASP
# Pseudopotential:                  PAW
# Note:                             ENCUT=400eV, k-spacing_relax=0.20/Angstrom, k-spacing_bandgap=0.15/Angstrom
# Created by:                       C.Kim, T.D.Huan, S.Krishnan, R. Ramprasad