data_1
_audit_creation_method   'Generated by vasp2cif'
_cell_length_a    5.6190701175
_cell_length_b    4.11477511844
_cell_length_c    6.88359294081
_cell_angle_alpha    107.475163722
_cell_angle_beta    84.7274976314
_cell_angle_gamma    92.8485020877

_symmetry_space_group_name_H-M    'P 1'
loop_
_atom_site_label
_atom_site_type_symbol
_atom_site_fract_x
_atom_site_fract_y
_atom_site_fract_z
_atom_site_occupancy
Cl1   Cl   0.977228840828872   0.163192176432588   0.727679083180092   1.0
Cl2   Cl   0.519472665672971   0.818277211515294   0.025843570765460   1.0
Cl3   Cl   0.946555254216541   0.437614501920706   0.292314031643095   1.0
H4   H   0.511017772903323   0.926301021080405   0.367216054627406   1.0
H5   H   0.652932463245946   0.948320692684185   0.580070382664680   1.0
H6   H   0.366200111574692   0.081983977378783   0.606425234219806   1.0
H7   H   0.255910129110788   0.534520350459950   0.437754929796988   1.0
Ge8   Ge   0.957396048219671   0.862109965925754   0.008564863334207   1.0
N9   N   0.489345093010080   0.908673397701342   0.515990064215288   1.0
O10   O   0.405461621217128   0.570216704900979   0.511921785552886   1.0




# HOIP entry ID:                    0151
# Khazana ID:                       2001
# Organic cation source:            G.Kieslich et al., Chem. Sci. 6, 3430 (2015)
# Label:                            Hydroxylammonium Germanium Chloride
# Material class:                   Hybrid organic-inorganic perovskite ( MC_ino )
# Geometry class:                   Bulk crystalline materials ( GC_cry )
# Organic cation chemical formula:  OHNH3
# Number of atom types:             5
# Total number of atoms:            10
# Atom types:                        H N O Ge Cl
# Number of each atom:               4 1  1 3
# Bandgap, HSE06 (eV):              3.8053
# Bandgap, GGA (eV):                2.9046
# Kpoint for VBM:                   0.5, -0.3, 0.2143
# Kpoint for CBM:                   0.5, 0, 0.5
# Dielectric constant, electronic:  3.656
# Dielectric constant, ionic:       8.8913
# Dielectric constant, total:       12.5473
# Refractive index:                 1.9121
# Atomization energy (eV/atom):     -3.9515
# Relative energy1 (eV/atom):       0.4019
# Relative energy2 (eV/atom):       0.6911
# Volume of the unit cell (A^3):    151.13
# Density (g/cm^3):                 2.3405
# Tool:                             VASP
# Pseudopotential:                  PAW
# Note:                             ENCUT=400eV, k-spacing_relax=0.20/Angstrom, k-spacing_bandgap=0.15/Angstrom
# Created by:                       C.Kim, T.D.Huan, S.Krishnan, R. Ramprasad