data_1
_audit_creation_method   'Generated by vasp2cif'
_cell_length_a    6.87050138551
_cell_length_b    4.16685032016
_cell_length_c    5.58942126933
_cell_angle_alpha    94.2926191638
_cell_angle_beta    96.3046412418
_cell_angle_gamma    71.4746330609

_symmetry_space_group_name_H-M    'P 1'
loop_
_atom_site_label
_atom_site_type_symbol
_atom_site_fract_x
_atom_site_fract_y
_atom_site_fract_z
_atom_site_occupancy
Cl1   Cl   0.764599912353454   0.370424189534290   0.155783321734624   1.0
Cl2   Cl   0.094150781782275   0.702357308755325   0.584765173878139   1.0
Cl3   Cl   0.327836442680017   0.075635007603140   0.140259763724906   1.0
H4   H   0.433517181208991   0.390760989943985   0.593762596840314   1.0
H5   H   0.658395501144511   0.180769596825755   0.474293379985085   1.0
H6   H   0.663825402220404   0.317016074432004   0.769736160502752   1.0
H7   H   0.484260604980698   0.964191985595320   0.836051946735274   1.0
Ge8   Ge   0.049925455624027   0.646600583785407   0.144640814855762   1.0
N9   N   0.581872272504050   0.223481502845303   0.628863969185211   1.0
O10   O   0.570256445501585   0.902702760679460   0.695232872557895   1.0




# HOIP entry ID:                    0152
# Khazana ID:                       2002
# Organic cation source:            G.Kieslich et al., Chem. Sci. 6, 3430 (2015)
# Label:                            Hydroxylammonium Germanium Chloride
# Material class:                   Hybrid organic-inorganic perovskite ( MC_ino )
# Geometry class:                   Bulk crystalline materials ( GC_cry )
# Organic cation chemical formula:  OHNH3
# Number of atom types:             5
# Total number of atoms:            10
# Atom types:                        H N O Ge Cl
# Number of each atom:               4 1  1 3
# Bandgap, HSE06 (eV):              3.8968
# Bandgap, GGA (eV):                2.988
# Kpoint for VBM:                   0.1667, 0.3, 0.5
# Kpoint for CBM:                   0.5, 0, 0.3571
# Dielectric constant, electronic:  3.6322
# Dielectric constant, ionic:       7.5328
# Dielectric constant, total:       11.165
# Refractive index:                 1.9058
# Atomization energy (eV/atom):     -3.9488
# Relative energy1 (eV/atom):       0.4046
# Relative energy2 (eV/atom):       0.6938
# Volume of the unit cell (A^3):    150.67
# Density (g/cm^3):                 2.3476
# Tool:                             VASP
# Pseudopotential:                  PAW
# Note:                             ENCUT=400eV, k-spacing_relax=0.20/Angstrom, k-spacing_bandgap=0.15/Angstrom
# Created by:                       C.Kim, T.D.Huan, S.Krishnan, R. Ramprasad