data_1
_audit_creation_method   'Generated by vasp2cif'
_cell_length_a    5.60182327548
_cell_length_b    3.95404803017
_cell_length_c    6.91456835893
_cell_angle_alpha    105.020135145
_cell_angle_beta    83.4975631758
_cell_angle_gamma    93.5380048965

_symmetry_space_group_name_H-M    'P 1'
loop_
_atom_site_label
_atom_site_type_symbol
_atom_site_fract_x
_atom_site_fract_y
_atom_site_fract_z
_atom_site_occupancy
Cl1   Cl   0.853540048667824   0.888634409841586   0.777257936539584   1.0
Cl2   Cl   0.310780734588242   0.570901968415008   0.987288533004744   1.0
Cl3   Cl   0.921435081846937   0.155991042595652   0.338516750619313   1.0
H4   H   0.418525466700842   0.189337166550416   0.510949432101143   1.0
H5   H   0.512988870503577   0.990367721622270   0.677767848321650   1.0
H6   H   0.210781536569165   0.980898440259587   0.648298083620858   1.0
H7   H   0.335283958228693   0.654972627117651   0.312908543652455   1.0
Ge8   Ge   0.870964452504431   0.588554487392784   0.070312506310891   1.0
N9   N   0.386023055208795   0.981724962331377   0.577306429546773   1.0
O10   O   0.424946795181498   0.649947173873613   0.428793936282609   1.0




# HOIP entry ID:                    0153
# Khazana ID:                       2003
# Organic cation source:            G.Kieslich et al., Chem. Sci. 6, 3430 (2015)
# Label:                            Hydroxylammonium Germanium Chloride
# Material class:                   Hybrid organic-inorganic perovskite ( MC_ino )
# Geometry class:                   Bulk crystalline materials ( GC_cry )
# Organic cation chemical formula:  OHNH3
# Number of atom types:             5
# Total number of atoms:            10
# Atom types:                        H N O Ge Cl
# Number of each atom:               4 1  1 3
# Bandgap, HSE06 (eV):              4.2431
# Bandgap, GGA (eV):                3.2257
# Kpoint for VBM:                   0.5, -0.3, 0.1667
# Kpoint for CBM:                   0.5, 0.5, 0
# Dielectric constant, electronic:  3.7099
# Dielectric constant, ionic:       10.0885
# Dielectric constant, total:       13.7984
# Refractive index:                 1.9261
# Atomization energy (eV/atom):     -3.9473
# Relative energy1 (eV/atom):       0.406
# Relative energy2 (eV/atom):       0.6953
# Volume of the unit cell (A^3):    146.89
# Density (g/cm^3):                 2.408
# Tool:                             VASP
# Pseudopotential:                  PAW
# Note:                             ENCUT=400eV, k-spacing_relax=0.20/Angstrom, k-spacing_bandgap=0.15/Angstrom
# Created by:                       C.Kim, T.D.Huan, S.Krishnan, R. Ramprasad