data_1
_audit_creation_method   'Generated by vasp2cif'
_cell_length_a    7.04768485378
_cell_length_b    3.96109000496
_cell_length_c    5.63744664716
_cell_angle_alpha    82.4551181051
_cell_angle_beta    79.4690895667
_cell_angle_gamma    73.8634380381

_symmetry_space_group_name_H-M    'P 1'
loop_
_atom_site_label
_atom_site_type_symbol
_atom_site_fract_x
_atom_site_fract_y
_atom_site_fract_z
_atom_site_occupancy
Cl1   Cl   0.770531439908396   0.359436824292267   0.163603618429804   1.0
Cl2   Cl   0.142065854527978   0.730764469200174   0.783679738455810   1.0
Cl3   Cl   0.327611662329900   0.072396407733386   0.234334594289841   1.0
H4   H   0.440672227126804   0.108975646394555   0.560152262525570   1.0
H5   H   0.602416842237609   0.303602313424605   0.642153945811323   1.0
H6   H   0.448473361988192   0.118869140619225   0.861884312975782   1.0
H7   H   0.719627021637422   0.696154467280678   0.838934052193487   1.0
Ge8   Ge   0.044187428110327   0.674187465717957   0.214110664117349   1.0
N9   N   0.531700018411414   0.101946082436051   0.688045770947525   1.0
O10   O   0.679694143721996   0.762897182901071   0.674091040253458   1.0




# HOIP entry ID:                    0154
# Khazana ID:                       2004
# Organic cation source:            G.Kieslich et al., Chem. Sci. 6, 3430 (2015)
# Label:                            Hydroxylammonium Germanium Chloride
# Material class:                   Hybrid organic-inorganic perovskite ( MC_ino )
# Geometry class:                   Bulk crystalline materials ( GC_cry )
# Organic cation chemical formula:  OHNH3
# Number of atom types:             5
# Total number of atoms:            10
# Atom types:                        H N O Ge Cl
# Number of each atom:               4 1  1 3
# Bandgap, HSE06 (eV):              4.4061
# Bandgap, GGA (eV):                3.4106
# Kpoint for VBM:                   0.5, 0.0455, 0.5
# Kpoint for CBM:                   0.4, 0, 0
# Dielectric constant, electronic:  3.6353
# Dielectric constant, ionic:       11.7495
# Dielectric constant, total:       15.3848
# Refractive index:                 1.9066
# Atomization energy (eV/atom):     -3.9481
# Relative energy1 (eV/atom):       0.4052
# Relative energy2 (eV/atom):       0.6945
# Volume of the unit cell (A^3):    148.09
# Density (g/cm^3):                 2.3885
# Tool:                             VASP
# Pseudopotential:                  PAW
# Note:                             ENCUT=400eV, k-spacing_relax=0.20/Angstrom, k-spacing_bandgap=0.15/Angstrom
# Created by:                       C.Kim, T.D.Huan, S.Krishnan, R. Ramprasad