data_1
_audit_creation_method   'Generated by vasp2cif'
_cell_length_a    5.58657043583
_cell_length_b    4.02326107996
_cell_length_c    6.8606311931
_cell_angle_alpha    105.343785753
_cell_angle_beta    80.8909008989
_cell_angle_gamma    94.6398516801

_symmetry_space_group_name_H-M    'P 1'
loop_
_atom_site_label
_atom_site_type_symbol
_atom_site_fract_x
_atom_site_fract_y
_atom_site_fract_z
_atom_site_occupancy
Cl1   Cl   0.839257814568967   0.008605644878408   0.821841520865611   1.0
Cl2   Cl   0.300890321271922   0.648377940810327   0.973007518480649   1.0
Cl3   Cl   0.944214707562622   0.267113419343218   0.379317231496209   1.0
H4   H   0.236267900259989   0.134719624664150   0.566580373410666   1.0
H5   H   0.543631234093525   0.176140412476933   0.566719144072607   1.0
H6   H   0.364014951976138   0.984128822775880   0.735463313789445   1.0
H7   H   0.263541924219560   0.605536604829794   0.405786015230198   1.0
Ge8   Ge   0.867550544272241   0.674085542166182   0.083730753972326   1.0
N9   N   0.387699882368914   0.025243859550827   0.590135250689919   1.0
O10   O   0.427840719406213   0.697188128504308   0.439788877992356   1.0




# HOIP entry ID:                    0155
# Khazana ID:                       2005
# Organic cation source:            G.Kieslich et al., Chem. Sci. 6, 3430 (2015)
# Label:                            Hydroxylammonium Germanium Chloride
# Material class:                   Hybrid organic-inorganic perovskite ( MC_ino )
# Geometry class:                   Bulk crystalline materials ( GC_cry )
# Organic cation chemical formula:  OHNH3
# Number of atom types:             5
# Total number of atoms:            10
# Atom types:                        H N O Ge Cl
# Number of each atom:               4 1  1 3
# Bandgap, HSE06 (eV):              4.2385
# Bandgap, GGA (eV):                3.2485
# Kpoint for VBM:                   0.5, 0, 0.5
# Kpoint for CBM:                   0.0714, 0, 0.5
# Dielectric constant, electronic:  3.6949
# Dielectric constant, ionic:       18.7855
# Dielectric constant, total:       22.4804
# Refractive index:                 1.9222
# Atomization energy (eV/atom):     -3.9406
# Relative energy1 (eV/atom):       0.4127
# Relative energy2 (eV/atom):       0.702
# Volume of the unit cell (A^3):    146.71
# Density (g/cm^3):                 2.411
# Tool:                             VASP
# Pseudopotential:                  PAW
# Note:                             ENCUT=400eV, k-spacing_relax=0.20/Angstrom, k-spacing_bandgap=0.15/Angstrom
# Created by:                       C.Kim, T.D.Huan, S.Krishnan, R. Ramprasad