data_1
_audit_creation_method   'Generated by vasp2cif'
_cell_length_a    7.08499263706
_cell_length_b    3.94552263932
_cell_length_c    5.63315269573
_cell_angle_alpha    82.2347380675
_cell_angle_beta    95.9903851706
_cell_angle_gamma    73.7601554201

_symmetry_space_group_name_H-M    'P 1'
loop_
_atom_site_label
_atom_site_type_symbol
_atom_site_fract_x
_atom_site_fract_y
_atom_site_fract_z
_atom_site_occupancy
Cl1   Cl   0.291204608422646   0.045001117742913   0.936871507550201   1.0
Cl2   Cl   0.924356130352223   0.791009103146756   0.554844181514824   1.0
Cl3   Cl   0.733692441630069   0.312829749985959   0.002461419327886   1.0
H4   H   0.616458917858353   0.483742405305357   0.318209090557616   1.0
H5   H   0.624473534297053   0.481300825015460   0.624448891085230   1.0
H6   H   0.348560671523600   0.341110874433859   0.615323490250248   1.0
H7   H   0.463905467410243   0.831727504061860   0.419959404221636   1.0
Ge8   Ge   0.018347016010551   0.634388737250312   0.985920282297194   1.0
N9   N   0.534032488636250   0.558009157467637   0.455823974433990   1.0
O10   O   0.386298723858957   0.365640525589846   0.449017758761258   1.0




# HOIP entry ID:                    0156
# Khazana ID:                       2006
# Organic cation source:            G.Kieslich et al., Chem. Sci. 6, 3430 (2015)
# Label:                            Hydroxylammonium Germanium Chloride
# Material class:                   Hybrid organic-inorganic perovskite ( MC_ino )
# Geometry class:                   Bulk crystalline materials ( GC_cry )
# Organic cation chemical formula:  OHNH3
# Number of atom types:             5
# Total number of atoms:            10
# Atom types:                        H N O Ge Cl
# Number of each atom:               4 1  1 3
# Bandgap, HSE06 (eV):              4.4007
# Bandgap, GGA (eV):                3.407
# Kpoint for VBM:                   0.5, 0.0455, 0.5
# Kpoint for CBM:                   0.4, 0, 0
# Dielectric constant, electronic:  3.6414
# Dielectric constant, ionic:       12.1418
# Dielectric constant, total:       15.7832
# Refractive index:                 1.9082
# Atomization energy (eV/atom):     -3.9482
# Relative energy1 (eV/atom):       0.4051
# Relative energy2 (eV/atom):       0.6944
# Volume of the unit cell (A^3):    148.12
# Density (g/cm^3):                 2.388
# Tool:                             VASP
# Pseudopotential:                  PAW
# Note:                             ENCUT=400eV, k-spacing_relax=0.20/Angstrom, k-spacing_bandgap=0.15/Angstrom
# Created by:                       C.Kim, T.D.Huan, S.Krishnan, R. Ramprasad