data_1
_audit_creation_method   'Generated by vasp2cif'
_cell_length_a    5.67627709642
_cell_length_b    5.68738521074
_cell_length_c    5.55868356699
_cell_angle_alpha    79.123876299
_cell_angle_beta    81.4083042785
_cell_angle_gamma    84.1796567202

_symmetry_space_group_name_H-M    'P 1'
loop_
_atom_site_label
_atom_site_type_symbol
_atom_site_fract_x
_atom_site_fract_y
_atom_site_fract_z
_atom_site_occupancy
Ge1   Ge   0.623434377500288   0.334473814659248   0.491835273487695   1.0
Cl2   Cl   0.643593732291940   0.901237025139196   0.517226654165221   1.0
Cl3   Cl   0.057312287637700   0.351020765010048   0.469891688658080   1.0
Cl4   Cl   0.616866699365666   0.417101316219487   0.044898248488032   1.0
N5   N   0.102411403675148   0.733091357881364   0.850698359859130   1.0
N6   N   0.243525798435449   0.938809565813507   0.118120965519005   1.0
H7   H   0.243292602367674   0.607651841023113   0.854985368523806   1.0
H8   H   0.395160874148886   0.828202298086069   0.131632044859671   1.0
H9   H   0.973222471070841   0.721035603982095   0.746187626377704   1.0
H10   H   0.210396065472310   0.069388003077520   0.224294952586185   1.0
H11   H   0.924448042287366   0.029584032986932   0.978024598468870   1.0
C12   C   0.082495645746718   0.905394376121421   0.982104219006651   1.0




# HOIP entry ID:                    0157
# Khazana ID:                       2007
# Organic cation source:            T.D.Huan et al., Phys. Rev. B 93,094105(2016)
# Label:                            Formamidinium Germanium Chloride
# Material class:                   Hybrid organic-inorganic perovskite ( MC_ino )
# Geometry class:                   Bulk crystalline materials ( GC_cry )
# Organic cation chemical formula:  HC(NH2)2
# Number of atom types:             5
# Total number of atoms:            12
# Atom types:                       C H N  Ge Cl
# Number of each atom:              1 5 2  1 3
# Bandgap, HSE06 (eV):              3.4479
# Bandgap, GGA (eV):                2.5914
# Kpoint for VBM:                   0.5, 0.5, 0.5
# Kpoint for CBM:                   0.5, 0.5, 0.5
# Dielectric constant, electronic:  3.5143
# Dielectric constant, ionic:       4.3725
# Dielectric constant, total:       7.8867
# Refractive index:                 1.8746
# Atomization energy (eV/atom):     -4.5608
# Relative energy1 (eV/atom):       -0.0593
# Relative energy2 (eV/atom):       0.1818
# Volume of the unit cell (A^3):    173.75
# Density (g/cm^3):                 2.1411
# Tool:                             VASP
# Pseudopotential:                  PAW
# Note:                             ENCUT=400eV, k-spacing_relax=0.20/Angstrom, k-spacing_bandgap=0.15/Angstrom
# Created by:                       C.Kim, T.D.Huan, S.Krishnan, R. Ramprasad