data_1
_audit_creation_method   'Generated by vasp2cif'
_cell_length_a    5.6661091315
_cell_length_b    5.58822222607
_cell_length_c    5.65283908789
_cell_angle_alpha    89.1954791022
_cell_angle_beta    104.179434206
_cell_angle_gamma    90.7837641377

_symmetry_space_group_name_H-M    'P 1'
loop_
_atom_site_label
_atom_site_type_symbol
_atom_site_fract_x
_atom_site_fract_y
_atom_site_fract_z
_atom_site_occupancy
Ge1   Ge   0.504077269068489   0.393755840434952   0.645194588668484   1.0
Cl2   Cl   0.500156551509073   0.832238848654414   0.631722825777539   1.0
Cl3   Cl   0.474553609321578   0.351700469787097   0.205314439800271   1.0
Cl4   Cl   0.066587911359452   0.358599010361676   0.602765430024977   1.0
N5   N   0.134509919226638   0.832058414443670   0.007599949654781   1.0
N6   N   0.867802415340393   0.859840357722563   0.260877413239277   1.0
H7   H   0.200912784383257   0.668522859145853   0.072124486214743   1.0
H8   H   0.911414102731274   0.697337765187695   0.343571398274753   1.0
H9   H   0.206782546147939   0.909390893840615   0.877139095129877   1.0
H10   H   0.742058787469326   0.958573653446623   0.315554540647473   1.0
H11   H   0.919073471753869   0.122294698297821   0.018612109463195   1.0
C12   C   0.971438595359325   0.945647143928456   0.092723706105136   1.0




# HOIP entry ID:                    0158
# Khazana ID:                       2008
# Organic cation source:            T.D.Huan et al., Phys. Rev. B 93,094105(2016)
# Label:                            Formamidinium Germanium Chloride
# Material class:                   Hybrid organic-inorganic perovskite ( MC_ino )
# Geometry class:                   Bulk crystalline materials ( GC_cry )
# Organic cation chemical formula:  HC(NH2)2
# Number of atom types:             5
# Total number of atoms:            12
# Atom types:                       C H N  Ge Cl
# Number of each atom:              1 5 2  1 3
# Bandgap, HSE06 (eV):              3.6815
# Bandgap, GGA (eV):                2.8095
# Kpoint for VBM:                   0.5, 0.5, 0.5
# Kpoint for CBM:                   0.5, 0.5, 0.5
# Dielectric constant, electronic:  3.5295
# Dielectric constant, ionic:       4.7224
# Dielectric constant, total:       8.2519
# Refractive index:                 1.8787
# Atomization energy (eV/atom):     -4.5589
# Relative energy1 (eV/atom):       -0.0574
# Relative energy2 (eV/atom):       0.1836
# Volume of the unit cell (A^3):    173.51
# Density (g/cm^3):                 2.1441
# Tool:                             VASP
# Pseudopotential:                  PAW
# Note:                             ENCUT=400eV, k-spacing_relax=0.20/Angstrom, k-spacing_bandgap=0.15/Angstrom
# Created by:                       C.Kim, T.D.Huan, S.Krishnan, R. Ramprasad