data_1
_audit_creation_method   'Generated by vasp2cif'
_cell_length_a    5.58506168194
_cell_length_b    5.6175063319
_cell_length_c    6.19353996002
_cell_angle_alpha    101.894426752
_cell_angle_beta    99.4180143181
_cell_angle_gamma    71.0527746048

_symmetry_space_group_name_H-M    'P 1'
loop_
_atom_site_label
_atom_site_type_symbol
_atom_site_fract_x
_atom_site_fract_y
_atom_site_fract_z
_atom_site_occupancy
Ge1   Ge   0.355136149093895   0.490141655875618   0.455554576646783   1.0
Cl2   Cl   0.488942947306654   0.907759681793650   0.189705580917696   1.0
Cl3   Cl   0.550137639985778   0.289216301475335   0.778563663429566   1.0
Cl4   Cl   0.956819947013038   0.404504600802831   0.444801843576030   1.0
N5   N   0.936122671564249   0.691459532137024   0.998625287561225   1.0
N6   N   0.195531350932072   0.853144780315809   0.673789437446963   1.0
H7   H   0.137413478632396   0.806101982366073   0.804597025708709   1.0
H8   H   0.040854762154446   0.975288517840539   0.598327837777028   1.0
H9   H   0.871612443520213   0.534675937817070   0.951360064443833   1.0
H10   H   0.324662644686377   0.952226598263650   0.732348635326595   1.0
H11   H   0.835751537229278   0.063603684788788   0.164491019533060   1.0
C12   C   0.793354427881717   0.884406726523473   0.105845027632626   1.0




# HOIP entry ID:                    0159
# Khazana ID:                       2009
# Organic cation source:            T.D.Huan et al., Phys. Rev. B 93,094105(2016)
# Label:                            Formamidinium Germanium Chloride
# Material class:                   Hybrid organic-inorganic perovskite ( MC_ino )
# Geometry class:                   Bulk crystalline materials ( GC_cry )
# Organic cation chemical formula:  HC(NH2)2
# Number of atom types:             5
# Total number of atoms:            12
# Atom types:                       C H N  Ge Cl
# Number of each atom:              1 5 2  1 3
# Bandgap, HSE06 (eV):              4.4106
# Bandgap, GGA (eV):                3.3483
# Kpoint for VBM:                   0.5, 0.5, 0.5
# Kpoint for CBM:                   0.5, 0.5, 0.5
# Dielectric constant, electronic:  3.1771
# Dielectric constant, ionic:       2.4565
# Dielectric constant, total:       5.6335
# Refractive index:                 1.7824
# Atomization energy (eV/atom):     -4.4262
# Relative energy1 (eV/atom):       0.0753
# Relative energy2 (eV/atom):       0.3164
# Volume of the unit cell (A^3):    178.86
# Density (g/cm^3):                 2.08
# Tool:                             VASP
# Pseudopotential:                  PAW
# Note:                             ENCUT=400eV, k-spacing_relax=0.20/Angstrom, k-spacing_bandgap=0.15/Angstrom
# Created by:                       C.Kim, T.D.Huan, S.Krishnan, R. Ramprasad