data_1
_audit_creation_method   'Generated by vasp2cif'
_cell_length_a    6.20552024458
_cell_length_b    6.30882522027
_cell_length_c    6.12531387278
_cell_angle_alpha    91.7936804591
_cell_angle_beta    85.8844403019
_cell_angle_gamma    88.8375766944

_symmetry_space_group_name_H-M    'P 1'
loop_
_atom_site_label
_atom_site_type_symbol
_atom_site_fract_x
_atom_site_fract_y
_atom_site_fract_z
_atom_site_occupancy
C1   C   0.347923881586773   0.421300013875786   0.315173928739554   1.0
C2   C   0.639935461083837   0.565255525702078   0.530997934418373   1.0
C3   C   0.405252762142489   0.282716963135393   0.682219887002240   1.0
C4   C   0.257037446813207   0.647794717013660   0.644612786535120   1.0
H5   H   0.300905315811079   0.685641625775084   0.809886056190415   1.0
H6   H   0.094221619777883   0.586463104975195   0.647583010980327   1.0
H7   H   0.183270237307255   0.365001158529438   0.329647823745056   1.0
H8   H   0.677269994998376   0.612987785686634   0.696147591597828   1.0
H9   H   0.240593163168015   0.225938481782954   0.691926551979904   1.0
H10   H   0.454765619439698   0.327698171040282   0.843706074732374   1.0
H11   H   0.751309466486020   0.440654851755078   0.463191174800720   1.0
H12   H   0.270050867690422   0.786965419812333   0.544169831512498   1.0
H13   H   0.518047308335809   0.163761719247908   0.604814915869632   1.0
H14   H   0.358649431194642   0.563338534723044   0.218652609430613   1.0
H15   H   0.642105896076352   0.700647473781594   0.425692858680613   1.0
H16   H   0.457678718031083   0.297244106145783   0.243813709261630   1.0
Cl17   Cl   0.534114187666717   0.920574228157399   0.060924974704022   1.0
Cl18   Cl   0.925112846456500   0.028099905414933   0.447029646440406   1.0
Cl19   Cl   0.886259704077389   0.368353490508021   0.004507619809559   1.0
N20   N   0.412994828888607   0.478335078527934   0.543404443756934   1.0
Ge21   Ge   0.916611242967839   0.992377644409530   0.053916569812188   1.0




# HOIP entry ID:                    0161
# Khazana ID:                       2011
# Organic cation source:            B.Saparov et al., Chem. Rev. 116, 4558 (2016)
# Label:                            Tetramethylammonium Germanium Chloride
# Material class:                   Hybrid organic-inorganic perovskite ( MC_ino )
# Geometry class:                   Bulk crystalline materials ( GC_cry )
# Organic cation chemical formula:  (CH3)4N
# Number of atom types:             5
# Total number of atoms:            21
# Atom types:                       C H N  Ge Cl
# Number of each atom:              4 12 1  1 3
# Bandgap, HSE06 (eV):              4.6071
# Bandgap, GGA (eV):                3.5907
# Kpoint for VBM:                   0.5, 0.5, 0.5
# Kpoint for CBM:                   0.5, 0.5, 0.5
# Dielectric constant, electronic:  2.8696
# Dielectric constant, ionic:       1.3559
# Dielectric constant, total:       4.2255
# Refractive index:                 1.694
# Atomization energy (eV/atom):     -4.5598
# Relative energy1 (eV/atom):       -0.0074
# Relative energy2 (eV/atom):       0.1042
# Volume of the unit cell (A^3):    239.01
# Density (g/cm^3):                 1.7586
# Tool:                             VASP
# Pseudopotential:                  PAW
# Note:                             ENCUT=400eV, k-spacing_relax=0.20/Angstrom, k-spacing_bandgap=0.15/Angstrom
# Created by:                       C.Kim, T.D.Huan, S.Krishnan, R. Ramprasad