data_1
_audit_creation_method   'Generated by vasp2cif'
_cell_length_a    6.50896993028
_cell_length_b    5.34238786975
_cell_length_c    7.0698331062
_cell_angle_alpha    87.6662134983
_cell_angle_beta    89.7571664778
_cell_angle_gamma    85.9043282316

_symmetry_space_group_name_H-M    'P 1'
loop_
_atom_site_label
_atom_site_type_symbol
_atom_site_fract_x
_atom_site_fract_y
_atom_site_fract_z
_atom_site_occupancy
C1   C   0.440322660102768   0.364661077164452   0.472704299003343   1.0
C2   C   0.570316039292799   0.726926338933831   0.633433751685262   1.0
C3   C   0.349395175223477   0.440526029851922   0.810262609602454   1.0
C4   C   0.200130197989469   0.724847718301284   0.552530593452985   1.0
H5   H   0.231796196640581   0.810761529630859   0.414143046595984   1.0
H6   H   0.165802768127058   0.868106915231689   0.655320368725394   1.0
H7   H   0.467164407805718   0.459326930985423   0.336360336122059   1.0
H8   H   0.599467695941814   0.812812667992607   0.494602750310829   1.0
H9   H   0.222323856465348   0.320894548746634   0.796923705186684   1.0
H10   H   0.309547810097483   0.588282388481730   0.908772307426584   1.0
H11   H   0.529331921138676   0.868312796343693   0.735959055445072   1.0
H12   H   0.072350271762493   0.604357561572433   0.543880463336721   1.0
H13   H   0.488940649257953   0.332286235544589   0.857154293465396   1.0
H14   H   0.578881520007725   0.253964944411642   0.518742837951156   1.0
H15   H   0.703519139706614   0.607623688430148   0.683190641213112   1.0
H16   H   0.308932491353607   0.250863665018211   0.463141136818016   1.0
Cl17   Cl   0.506918853688052   0.925748660091071   0.128962272871216   1.0
Cl18   Cl   0.936718840120692   0.262545866395486   0.282542205302141   1.0
Cl19   Cl   0.874158673856565   0.151890435186333   0.799333337443485   1.0
N20   N   0.390032346157888   0.563557958698329   0.617040530013812   1.0
Ge21   Ge   0.880718485263182   0.911532042987547   0.095849458028207   1.0




# HOIP entry ID:                    0162
# Khazana ID:                       2012
# Organic cation source:            B.Saparov et al., Chem. Rev. 116, 4558 (2016)
# Label:                            Tetramethylammonium Germanium Chloride
# Material class:                   Hybrid organic-inorganic perovskite ( MC_ino )
# Geometry class:                   Bulk crystalline materials ( GC_cry )
# Organic cation chemical formula:  (CH3)4N
# Number of atom types:             5
# Total number of atoms:            21
# Atom types:                       C H N  Ge Cl
# Number of each atom:              4 12 1  1 3
# Bandgap, HSE06 (eV):              4.5402
# Bandgap, GGA (eV):                3.5046
# Kpoint for VBM:                   0.5, 0.5, 0
# Kpoint for CBM:                   0.5, 0.5, 0
# Dielectric constant, electronic:  2.7923
# Dielectric constant, ionic:       1.6142
# Dielectric constant, total:       4.4065
# Refractive index:                 1.671
# Atomization energy (eV/atom):     -4.554
# Relative energy1 (eV/atom):       -0.0015
# Relative energy2 (eV/atom):       0.11
# Volume of the unit cell (A^3):    245.01
# Density (g/cm^3):                 1.7155
# Tool:                             VASP
# Pseudopotential:                  PAW
# Note:                             ENCUT=400eV, k-spacing_relax=0.20/Angstrom, k-spacing_bandgap=0.15/Angstrom
# Created by:                       C.Kim, T.D.Huan, S.Krishnan, R. Ramprasad