data_1
_audit_creation_method   'Generated by vasp2cif'
_cell_length_a    5.55473694901
_cell_length_b    5.38371536065
_cell_length_c    5.42808957761
_cell_angle_alpha    89.5147651154
_cell_angle_beta    81.7099801613
_cell_angle_gamma    88.8515254163

_symmetry_space_group_name_H-M    'P 1'
loop_
_atom_site_label
_atom_site_type_symbol
_atom_site_fract_x
_atom_site_fract_y
_atom_site_fract_z
_atom_site_occupancy
Cl1   Cl   0.946134829234474   0.992084846538567   0.542022769349856   1.0
Cl2   Cl   0.461182170073727   0.988819758773978   0.041469673132944   1.0
Cl3   Cl   0.985381407115312   0.485338467427539   0.061498728191658   1.0
H4   H   0.242340001026669   0.558685760446330   0.594295894869695   1.0
H5   H   0.464212354012282   0.668131941402947   0.391418269638216   1.0
H6   H   0.522234709406113   0.339689411513270   0.798829288196330   1.0
H7   H   0.746581686098153   0.449347345918611   0.594274153217881   1.0
H8   H   0.578869659544551   0.647444599816360   0.794007290347118   1.0
Ge9   Ge   0.003835232006480   0.016624212793175   0.090010964575527   1.0
N10   N   0.409244669240835   0.514412197247957   0.496223976746776   1.0
N11   N   0.574713282241433   0.490451458121221   0.684558991734193   1.0




# HOIP entry ID:                    0163
# Khazana ID:                       2013
# Organic cation source:            B.Saparov et al., Chem. Rev. 116, 4558 (2016)
# Label:                            Hydrazinium Germanium Chloride
# Material class:                   Hybrid organic-inorganic perovskite ( MC_ino )
# Geometry class:                   Bulk crystalline materials ( GC_cry )
# Organic cation chemical formula:  NH2NH3
# Number of atom types:             4
# Total number of atoms:            11
# Atom types:                        H N  Ge Cl
# Number of each atom:               5 2  1 3
# Bandgap, HSE06 (eV):              2.4942
# Bandgap, GGA (eV):                1.7931
# Kpoint for VBM:                   0.5, 0.5, 0.5
# Kpoint for CBM:                   0.5, 0.5, 0.4211
# Dielectric constant, electronic:  4.0415
# Dielectric constant, ionic:       12.9178
# Dielectric constant, total:       16.9594
# Refractive index:                 2.0103
# Atomization energy (eV/atom):     -4.1074
# Relative energy1 (eV/atom):       0.4567
# Relative energy2 (eV/atom):       0.7197
# Volume of the unit cell (A^3):    160.6
# Density (g/cm^3):                 2.1923
# Tool:                             VASP
# Pseudopotential:                  PAW
# Note:                             ENCUT=400eV, k-spacing_relax=0.20/Angstrom, k-spacing_bandgap=0.15/Angstrom
# Created by:                       C.Kim, T.D.Huan, S.Krishnan, R. Ramprasad