data_1
_audit_creation_method   'Generated by vasp2cif'
_cell_length_a    7.63856553522
_cell_length_b    5.41490953447
_cell_length_c    5.40445101544
_cell_angle_alpha    89.7634862781
_cell_angle_beta    46.1612817688
_cell_angle_gamma    95.6320635699

_symmetry_space_group_name_H-M    'P 1'
loop_
_atom_site_label
_atom_site_type_symbol
_atom_site_fract_x
_atom_site_fract_y
_atom_site_fract_z
_atom_site_occupancy
Cl1   Cl   0.551157678109584   0.032698077486107   0.465145009939607   1.0
Cl2   Cl   0.044429525818611   0.989082891472179   0.490410920155042   1.0
Cl3   Cl   0.025212886615830   0.548772625065280   0.999057960227909   1.0
H4   H   0.512234790580681   0.691439142654212   0.156082424152384   1.0
H5   H   0.470579596589580   0.667950103804286   0.895180008166869   1.0
H6   H   0.674119105367017   0.313511033655013   0.997845213132634   1.0
H7   H   0.642712111323912   0.301157304900829   0.720520917992271   1.0
H8   H   0.844106476908554   0.527848751765254   0.651736501024225   1.0
Ge9   Ge   0.083989100625783   0.001569899887042   0.910332354346244   1.0
N10   N   0.468007514690713   0.566523217934784   0.058673429025972   1.0
N11   N   0.673931213369677   0.420596951375046   0.839335261836828   1.0




# HOIP entry ID:                    0165
# Khazana ID:                       2015
# Organic cation source:            B.Saparov et al., Chem. Rev. 116, 4558 (2016)
# Label:                            Hydrazinium Germanium Chloride
# Material class:                   Hybrid organic-inorganic perovskite ( MC_ino )
# Geometry class:                   Bulk crystalline materials ( GC_cry )
# Organic cation chemical formula:  NH2NH3
# Number of atom types:             4
# Total number of atoms:            11
# Atom types:                        H N  Ge Cl
# Number of each atom:               5 2  1 3
# Bandgap, HSE06 (eV):              2.6829
# Bandgap, GGA (eV):                2.0749
# Kpoint for VBM:                   -0.1, 0.5, 0.4167
# Kpoint for CBM:                   -0.1, 0.5, 0.4167
# Dielectric constant, electronic:  4.0445
# Dielectric constant, ionic:       10.4148
# Dielectric constant, total:       14.4593
# Refractive index:                 2.0111
# Atomization energy (eV/atom):     -4.1068
# Relative energy1 (eV/atom):       0.4573
# Relative energy2 (eV/atom):       0.7202
# Volume of the unit cell (A^3):    159.65
# Density (g/cm^3):                 2.2053
# Tool:                             VASP
# Pseudopotential:                  PAW
# Note:                             ENCUT=400eV, k-spacing_relax=0.20/Angstrom, k-spacing_bandgap=0.15/Angstrom
# Created by:                       C.Kim, T.D.Huan, S.Krishnan, R. Ramprasad