data_1
_audit_creation_method   'Generated by vasp2cif'
_cell_length_a    3.82423032293
_cell_length_b    5.96041335097
_cell_length_c    7.4859051445
_cell_angle_alpha    81.4530363894
_cell_angle_beta    107.62490105
_cell_angle_gamma    110.190438757

_symmetry_space_group_name_H-M    'P 1'
loop_
_atom_site_label
_atom_site_type_symbol
_atom_site_fract_x
_atom_site_fract_y
_atom_site_fract_z
_atom_site_occupancy
Cl1   Cl   0.238000062649514   0.988584778987242   0.583740635024281   1.0
Cl2   Cl   0.559493284238826   0.991575362432516   0.133297128982883   1.0
Cl3   Cl   0.690338314594456   0.554445685962781   0.873938617429594   1.0
H4   H   0.313875503559602   0.470113411951770   0.527663627748605   1.0
H5   H   0.333206892076973   0.710774680173334   0.384143042802806   1.0
H6   H   0.654101545903006   0.465487138873860   0.315824569036066   1.0
H7   H   0.213708445447867   0.248287907758682   0.269545203416600   1.0
H8   H   0.275379856965314   0.503902341297196   0.137472643973384   1.0
Ge9   Ge   0.903654469855861   0.987412298707444   0.849084308324263   1.0
N10   N   0.204921257871884   0.528803273998178   0.392888113021306   1.0
N11   N   0.351930366836676   0.430653119856976   0.271862110240171   1.0




# HOIP entry ID:                    0166
# Khazana ID:                       2016
# Organic cation source:            B.Saparov et al., Chem. Rev. 116, 4558 (2016)
# Label:                            Hydrazinium Germanium Chloride
# Material class:                   Hybrid organic-inorganic perovskite ( MC_ino )
# Geometry class:                   Bulk crystalline materials ( GC_cry )
# Organic cation chemical formula:  NH2NH3
# Number of atom types:             4
# Total number of atoms:            11
# Atom types:                        H N  Ge Cl
# Number of each atom:               5 2  1 3
# Bandgap, HSE06 (eV):              4.3624
# Bandgap, GGA (eV):                3.4253
# Kpoint for VBM:                   0.0455, 0.5, 0.5
# Kpoint for CBM:                   0, -0.4375, 0.4167
# Dielectric constant, electronic:  3.6395
# Dielectric constant, ionic:       55.141
# Dielectric constant, total:       58.7804
# Refractive index:                 1.9077
# Atomization energy (eV/atom):     -4.1213
# Relative energy1 (eV/atom):       0.4428
# Relative energy2 (eV/atom):       0.7058
# Volume of the unit cell (A^3):    152.45
# Density (g/cm^3):                 2.3095
# Tool:                             VASP
# Pseudopotential:                  PAW
# Note:                             ENCUT=400eV, k-spacing_relax=0.20/Angstrom, k-spacing_bandgap=0.15/Angstrom
# Created by:                       C.Kim, T.D.Huan, S.Krishnan, R. Ramprasad