data_1
_audit_creation_method   'Generated by vasp2cif'
_cell_length_a    7.10512656637
_cell_length_b    5.79997885191
_cell_length_c    4.00425149626
_cell_angle_alpha    99.0504172516
_cell_angle_beta    77.7229200784
_cell_angle_gamma    95.9283846729

_symmetry_space_group_name_H-M    'P 1'
loop_
_atom_site_label
_atom_site_type_symbol
_atom_site_fract_x
_atom_site_fract_y
_atom_site_fract_z
_atom_site_occupancy
Cl1   Cl   0.426285175534879   0.107060430671659   0.342889415669895   1.0
Cl2   Cl   0.878256534456085   0.937077214807154   0.506934372272603   1.0
Cl3   Cl   0.084301040987384   0.417086352532699   0.093380038076091   1.0
H4   H   0.471771833802464   0.516501223187774   0.144081517634220   1.0
H5   H   0.625546608155446   0.748233766082762   0.079831639204528   1.0
H6   H   0.795272334773983   0.396770811400749   0.925748649191178   1.0
H7   H   0.643590583987631   0.302194890872236   0.652111568645651   1.0
H8   H   0.800151916754288   0.537605681448554   0.593552216781539   1.0
Ge9   Ge   0.154898017419789   0.008629243912310   0.992491534425120   1.0
N10   N   0.557658588845506   0.605054079699279   0.958324957408173   1.0
N11   N   0.708587365282540   0.448926305384809   0.776634090691068   1.0




# HOIP entry ID:                    0167
# Khazana ID:                       2017
# Organic cation source:            B.Saparov et al., Chem. Rev. 116, 4558 (2016)
# Label:                            Hydrazinium Germanium Chloride
# Material class:                   Hybrid organic-inorganic perovskite ( MC_ino )
# Geometry class:                   Bulk crystalline materials ( GC_cry )
# Organic cation chemical formula:  NH2NH3
# Number of atom types:             4
# Total number of atoms:            11
# Atom types:                        H N  Ge Cl
# Number of each atom:               5 2  1 3
# Bandgap, HSE06 (eV):              4.5743
# Bandgap, GGA (eV):                3.4723
# Kpoint for VBM:                   0.2368, 0.5, 0.2368
# Kpoint for CBM:                   0.3421, 0.3421, 0
# Dielectric constant, electronic:  3.4585
# Dielectric constant, ionic:       9.7519
# Dielectric constant, total:       13.2104
# Refractive index:                 1.8597
# Atomization energy (eV/atom):     -4.0989
# Relative energy1 (eV/atom):       0.4652
# Relative energy2 (eV/atom):       0.7282
# Volume of the unit cell (A^3):    158.81
# Density (g/cm^3):                 2.217
# Tool:                             VASP
# Pseudopotential:                  PAW
# Note:                             ENCUT=400eV, k-spacing_relax=0.20/Angstrom, k-spacing_bandgap=0.15/Angstrom
# Created by:                       C.Kim, T.D.Huan, S.Krishnan, R. Ramprasad