data_1
_audit_creation_method   'Generated by vasp2cif'
_cell_length_a    6.88830413732
_cell_length_b    5.73918557485
_cell_length_c    4.23059882406
_cell_angle_alpha    89.5381854049
_cell_angle_beta    71.5401066208
_cell_angle_gamma    93.3533388494

_symmetry_space_group_name_H-M    'P 1'
loop_
_atom_site_label
_atom_site_type_symbol
_atom_site_fract_x
_atom_site_fract_y
_atom_site_fract_z
_atom_site_occupancy
Cl1   Cl   0.527054293449687   0.093374448664811   0.646193534954008   1.0
Cl2   Cl   0.066175893047593   0.914977248367691   0.395792425878277   1.0
Cl3   Cl   0.927966313362141   0.394613304080920   0.982550011440360   1.0
H4   H   0.552148953788603   0.508340184922787   0.883113607947116   1.0
H5   H   0.391376316494643   0.722987117684710   0.982001562046044   1.0
H6   H   0.214085010967118   0.349842126148879   0.154331659514924   1.0
H7   H   0.370021259910246   0.311862091960066   0.387756466338764   1.0
H8   H   0.202980081536005   0.523566056776659   0.468512370999896   1.0
Ge9   Ge   0.807217437392730   0.982605098251085   0.107713453252437   1.0
N10   N   0.463788126372890   0.601780451748951   0.075588516159073   1.0
N11   N   0.303046313678294   0.434781871393447   0.280696391469235   1.0




# HOIP entry ID:                    0168
# Khazana ID:                       2018
# Organic cation source:            B.Saparov et al., Chem. Rev. 116, 4558 (2016)
# Label:                            Hydrazinium Germanium Chloride
# Material class:                   Hybrid organic-inorganic perovskite ( MC_ino )
# Geometry class:                   Bulk crystalline materials ( GC_cry )
# Organic cation chemical formula:  NH2NH3
# Number of atom types:             4
# Total number of atoms:            11
# Atom types:                        H N  Ge Cl
# Number of each atom:               5 2  1 3
# Bandgap, HSE06 (eV):              4.552
# Bandgap, GGA (eV):                3.5152
# Kpoint for VBM:                   0.2105, 0.5, 0.2105
# Kpoint for CBM:                   0.5, 0.2143, 0
# Dielectric constant, electronic:  3.4331
# Dielectric constant, ionic:       5.201
# Dielectric constant, total:       8.6341
# Refractive index:                 1.8529
# Atomization energy (eV/atom):     -4.1048
# Relative energy1 (eV/atom):       0.4593
# Relative energy2 (eV/atom):       0.7223
# Volume of the unit cell (A^3):    158.31
# Density (g/cm^3):                 2.224
# Tool:                             VASP
# Pseudopotential:                  PAW
# Note:                             ENCUT=400eV, k-spacing_relax=0.20/Angstrom, k-spacing_bandgap=0.15/Angstrom
# Created by:                       C.Kim, T.D.Huan, S.Krishnan, R. Ramprasad