data_1
_audit_creation_method   'Generated by vasp2cif'
_cell_length_a    7.35532571388
_cell_length_b    3.8326041562
_cell_length_c    5.73591645933
_cell_angle_alpha    103.842465194
_cell_angle_beta    95.2877071166
_cell_angle_gamma    77.2379152569

_symmetry_space_group_name_H-M    'P 1'
loop_
_atom_site_label
_atom_site_type_symbol
_atom_site_fract_x
_atom_site_fract_y
_atom_site_fract_z
_atom_site_occupancy
Cl1   Cl   0.408460009774821   0.348549233654474   0.003056904970435   1.0
Cl2   Cl   0.113258653593235   0.790897230759491   0.570367757533688   1.0
Cl3   Cl   0.859266350297190   0.594257453858866   0.011794061465956   1.0
H4   H   0.456549313200682   0.692162671732170   0.476697253605543   1.0
H5   H   0.588527413605441   0.759091717021505   0.726001004789047   1.0
H6   H   0.664269190042930   0.140311393801923   0.480441624826540   1.0
H7   H   0.733184805581715   0.340746863068475   0.276385476921213   1.0
H8   H   0.840724326017757   0.371578674541126   0.548545781128631   1.0
Ge9   Ge   0.142665998440656   0.935230898223750   0.004524832906156   1.0
N10   N   0.587918771571495   0.723545474222561   0.542924422939763   1.0
N11   N   0.713545167874152   0.366968389115605   0.456270878912996   1.0




# HOIP entry ID:                    0169
# Khazana ID:                       2019
# Organic cation source:            B.Saparov et al., Chem. Rev. 116, 4558 (2016)
# Label:                            Hydrazinium Germanium Chloride
# Material class:                   Hybrid organic-inorganic perovskite ( MC_ino )
# Geometry class:                   Bulk crystalline materials ( GC_cry )
# Organic cation chemical formula:  NH2NH3
# Number of atom types:             4
# Total number of atoms:            11
# Atom types:                        H N  Ge Cl
# Number of each atom:               5 2  1 3
# Bandgap, HSE06 (eV):              4.3923
# Bandgap, GGA (eV):                3.4436
# Kpoint for VBM:                   0.5, 0.0455, 0.5
# Kpoint for CBM:                   0.4, 0, 0.4286
# Dielectric constant, electronic:  3.6296
# Dielectric constant, ionic:       25.0035
# Dielectric constant, total:       28.6331
# Refractive index:                 1.9051
# Atomization energy (eV/atom):     -4.1216
# Relative energy1 (eV/atom):       0.4425
# Relative energy2 (eV/atom):       0.7054
# Volume of the unit cell (A^3):    152.99
# Density (g/cm^3):                 2.3013
# Tool:                             VASP
# Pseudopotential:                  PAW
# Note:                             ENCUT=400eV, k-spacing_relax=0.20/Angstrom, k-spacing_bandgap=0.15/Angstrom
# Created by:                       C.Kim, T.D.Huan, S.Krishnan, R. Ramprasad