data_1
_audit_creation_method   'Generated by vasp2cif'
_cell_length_a    7.15675371619
_cell_length_b    5.60996238663
_cell_length_c    4.24179818904
_cell_angle_alpha    90.8479137978
_cell_angle_beta    104.261678409
_cell_angle_gamma    73.511601162

_symmetry_space_group_name_H-M    'P 1'
loop_
_atom_site_label
_atom_site_type_symbol
_atom_site_fract_x
_atom_site_fract_y
_atom_site_fract_z
_atom_site_occupancy
Cl1   Cl   0.526023825752723   0.979466515071302   0.141006062498150   1.0
Cl2   Cl   0.067908920168755   0.010989417718228   0.402113084531699   1.0
Cl3   Cl   0.933958667688664   0.561206373578301   0.863942468489014   1.0
H4   H   0.532108424829708   0.559052129137193   0.471847272753294   1.0
H5   H   0.450424248917273   0.647889505545670   0.794280643983257   1.0
H6   H   0.185466780260562   0.577520001309679   0.388785085128482   1.0
H7   H   0.337136008993745   0.285652179372598   0.361962545821179   1.0
H8   H   0.255159576227079   0.361344360871023   0.694946047331015   1.0
Ge9   Ge   0.813173705407479   0.014286464329523   0.871786956574461   1.0
N10   N   0.488795043447915   0.495543617510315   0.660238176978901   1.0
N11   N   0.303084798306067   0.429449435556158   0.514441655910588   1.0




# HOIP entry ID:                    0170
# Khazana ID:                       2020
# Organic cation source:            B.Saparov et al., Chem. Rev. 116, 4558 (2016)
# Label:                            Hydrazinium Germanium Chloride
# Material class:                   Hybrid organic-inorganic perovskite ( MC_ino )
# Geometry class:                   Bulk crystalline materials ( GC_cry )
# Organic cation chemical formula:  NH2NH3
# Number of atom types:             4
# Total number of atoms:            11
# Atom types:                        H N  Ge Cl
# Number of each atom:               5 2  1 3
# Bandgap, HSE06 (eV):              4.4126
# Bandgap, GGA (eV):                3.3691
# Kpoint for VBM:                   0.5, 0.5, 0
# Kpoint for CBM:                   0.5, 0.0714, 0
# Dielectric constant, electronic:  3.4786
# Dielectric constant, ionic:       7.6579
# Dielectric constant, total:       11.1365
# Refractive index:                 1.8651
# Atomization energy (eV/atom):     -4.0997
# Relative energy1 (eV/atom):       0.4644
# Relative energy2 (eV/atom):       0.7274
# Volume of the unit cell (A^3):    157.99
# Density (g/cm^3):                 2.2285
# Tool:                             VASP
# Pseudopotential:                  PAW
# Note:                             ENCUT=400eV, k-spacing_relax=0.20/Angstrom, k-spacing_bandgap=0.15/Angstrom
# Created by:                       C.Kim, T.D.Huan, S.Krishnan, R. Ramprasad