data_1
_audit_creation_method   'Generated by vasp2cif'
_cell_length_a    7.59539067855
_cell_length_b    3.8038679336
_cell_length_c    5.51212798024
_cell_angle_alpha    90.8765079315
_cell_angle_beta    90.8614305309
_cell_angle_gamma    77.8144589104

_symmetry_space_group_name_H-M    'P 1'
loop_
_atom_site_label
_atom_site_type_symbol
_atom_site_fract_x
_atom_site_fract_y
_atom_site_fract_z
_atom_site_occupancy
Cl1   Cl   0.203203259410934   0.544217036521914   0.002854662938624   1.0
Cl2   Cl   0.950028633009936   0.199186945773860   0.467788247303169   1.0
Cl3   Cl   0.662159653382119   0.793005905320520   0.024281755602232   1.0
H4   H   0.576138948116309   0.466710189149715   0.677461240540609   1.0
H5   H   0.588565996722615   0.456424843373320   0.379377803751069   1.0
H6   H   0.279645932335143   0.771829490673085   0.654710558841018   1.0
H7   H   0.415470984773577   0.010872613556174   0.513544433364075   1.0
H8   H   0.290844750902210   0.760588530200451   0.350356585988834   1.0
Ge9   Ge   0.928485948670577   0.193715163023093   0.028791808603501   1.0
N10   N   0.504578272522195   0.441395277578835   0.520995085214579   1.0
N11   N   0.364017620154478   0.773744004829084   0.509207817852314   1.0




# HOIP entry ID:                    0171
# Khazana ID:                       2021
# Organic cation source:            B.Saparov et al., Chem. Rev. 116, 4558 (2016)
# Label:                            Hydrazinium Germanium Chloride
# Material class:                   Hybrid organic-inorganic perovskite ( MC_ino )
# Geometry class:                   Bulk crystalline materials ( GC_cry )
# Organic cation chemical formula:  NH2NH3
# Number of atom types:             4
# Total number of atoms:            11
# Atom types:                        H N  Ge Cl
# Number of each atom:               5 2  1 3
# Bandgap, HSE06 (eV):              3.9469
# Bandgap, GGA (eV):                3.1068
# Kpoint for VBM:                   0.5, 0.0455, 0.5
# Kpoint for CBM:                   0.1, 0.0455, 0.5
# Dielectric constant, electronic:  3.7013
# Dielectric constant, ionic:       49.0412
# Dielectric constant, total:       52.7425
# Refractive index:                 1.9239
# Atomization energy (eV/atom):     -4.12
# Relative energy1 (eV/atom):       0.4441
# Relative energy2 (eV/atom):       0.7071
# Volume of the unit cell (A^3):    155.64
# Density (g/cm^3):                 2.2621
# Tool:                             VASP
# Pseudopotential:                  PAW
# Note:                             ENCUT=400eV, k-spacing_relax=0.20/Angstrom, k-spacing_bandgap=0.15/Angstrom
# Created by:                       C.Kim, T.D.Huan, S.Krishnan, R. Ramprasad