data_1
_audit_creation_method   'Generated by vasp2cif'
_cell_length_a    5.82895235144
_cell_length_b    3.8690384127
_cell_length_c    7.23307262455
_cell_angle_alpha    99.7460227486
_cell_angle_beta    91.4033262052
_cell_angle_gamma    71.917711256

_symmetry_space_group_name_H-M    'P 1'
loop_
_atom_site_label
_atom_site_type_symbol
_atom_site_fract_x
_atom_site_fract_y
_atom_site_fract_z
_atom_site_occupancy
Cl1   Cl   0.991682456220505   0.537467737504562   0.764915313009504   1.0
Cl2   Cl   0.562316500418777   0.293945947914991   0.053322898803629   1.0
Cl3   Cl   0.004203445489659   0.705977803467267   0.310602786404017   1.0
H4   H   0.485064875379378   0.943745436479681   0.347690634086826   1.0
H5   H   0.261109673655733   0.114647342742563   0.506950920422528   1.0
H6   H   0.749576063548300   0.100946607223944   0.555294147628848   1.0
H7   H   0.513876418148479   0.489614203516644   0.549836119164623   1.0
H8   H   0.540341721422540   0.248587758346473   0.730415251334781   1.0
Ge9   Ge   0.000777716162284   0.073577588537141   0.039151892534406   1.0
N10   N   0.441698618063205   0.974025268972764   0.487550208354897   1.0
N11   N   0.567422511491063   0.224464305293993   0.586969828256008   1.0




# HOIP entry ID:                    0172
# Khazana ID:                       2022
# Organic cation source:            B.Saparov et al., Chem. Rev. 116, 4558 (2016)
# Label:                            Hydrazinium Germanium Chloride
# Material class:                   Hybrid organic-inorganic perovskite ( MC_ino )
# Geometry class:                   Bulk crystalline materials ( GC_cry )
# Organic cation chemical formula:  NH2NH3
# Number of atom types:             4
# Total number of atoms:            11
# Atom types:                        H N  Ge Cl
# Number of each atom:               5 2  1 3
# Bandgap, HSE06 (eV):              4.3627
# Bandgap, GGA (eV):                3.4064
# Kpoint for VBM:                   0.5, -0.2273, 0.3333
# Kpoint for CBM:                   -0.4286, 0, 0.4167
# Dielectric constant, electronic:  3.6173
# Dielectric constant, ionic:       11.9628
# Dielectric constant, total:       15.5801
# Refractive index:                 1.9019
# Atomization energy (eV/atom):     -4.121
# Relative energy1 (eV/atom):       0.4431
# Relative energy2 (eV/atom):       0.706
# Volume of the unit cell (A^3):    152.76
# Density (g/cm^3):                 2.3048
# Tool:                             VASP
# Pseudopotential:                  PAW
# Note:                             ENCUT=400eV, k-spacing_relax=0.20/Angstrom, k-spacing_bandgap=0.15/Angstrom
# Created by:                       C.Kim, T.D.Huan, S.Krishnan, R. Ramprasad