data_1
_audit_creation_method   'Generated by vasp2cif'
_cell_length_a    6.84639958349
_cell_length_b    5.74342916094
_cell_length_c    4.28873679698
_cell_angle_alpha    66.9155375305
_cell_angle_beta    108.85437894
_cell_angle_gamma    102.91371848

_symmetry_space_group_name_H-M    'P 1'
loop_
_atom_site_label
_atom_site_type_symbol
_atom_site_fract_x
_atom_site_fract_y
_atom_site_fract_z
_atom_site_occupancy
Ge1   Ge   0.898551898026469   0.944928642593375   0.653736964640224   1.0
Cl2   Cl   0.589708491534026   0.909998581026045   0.127286545385232   1.0
Cl3   Cl   0.175787608655668   0.028974689882936   0.361546494439878   1.0
Cl4   Cl   0.871234586734360   0.391026182885348   0.476399353233163   1.0
N5   N   0.396837618028989   0.469714013482779   0.752583065548713   1.0
H6   H   0.236108711916678   0.449320265460280   0.682599754133193   1.0
H7   H   0.451497269361894   0.292778973655359   0.866464454018846   1.0
H8   H   0.448860354185364   0.577851209280723   0.531043210162352   1.0
H9   H   0.452973461556582   0.569017441733159   0.924870158438353   1.0




# HOIP entry ID:                    0173
# Khazana ID:                       2023
# Organic cation source:            T.D.Huan et al., Phys. Rev. B 93,094105(2016)
# Label:                            Ammonium Germanium Chloride
# Material class:                   Hybrid organic-inorganic perovskite ( MC_ino )
# Geometry class:                   Bulk crystalline materials ( GC_cry )
# Organic cation chemical formula:  NH4
# Number of atom types:             4
# Total number of atoms:            9
# Atom types:                        H N  Ge Cl
# Number of each atom:               4 1  1 3
# Bandgap, HSE06 (eV):              4.5454
# Bandgap, GGA (eV):                3.5271
# Kpoint for VBM:                   -0.1667, -0.2143, 0.3182
# Kpoint for CBM:                   0.5, 0.5, 0
# Dielectric constant, electronic:  3.414
# Dielectric constant, ionic:       4.7896
# Dielectric constant, total:       8.2036
# Refractive index:                 1.8477
# Atomization energy (eV/atom):     -3.9284
# Relative energy1 (eV/atom):       0.4108
# Relative energy2 (eV/atom):       0.7322
# Volume of the unit cell (A^3):    145.9
# Density (g/cm^3):                 2.2423
# Tool:                             VASP
# Pseudopotential:                  PAW
# Note:                             ENCUT=400eV, k-spacing_relax=0.20/Angstrom, k-spacing_bandgap=0.15/Angstrom
# Created by:                       C.Kim, T.D.Huan, S.Krishnan, R. Ramprasad