data_1
_audit_creation_method   'Generated by vasp2cif'
_cell_length_a    5.43189076678
_cell_length_b    5.43067189119
_cell_length_c    5.43286239623
_cell_angle_alpha    83.9376546289
_cell_angle_beta    83.9934804574
_cell_angle_gamma    84.0685039763

_symmetry_space_group_name_H-M    'P 1'
loop_
_atom_site_label
_atom_site_type_symbol
_atom_site_fract_x
_atom_site_fract_y
_atom_site_fract_z
_atom_site_occupancy
Ge1   Ge   0.997827276926188   0.997857622744100   0.052840024999810   1.0
Cl2   Cl   0.003823538288827   0.915740565378748   0.510730453636064   1.0
Cl3   Cl   0.455309528538777   0.004685198727010   0.971065473288277   1.0
Cl4   Cl   0.915775927493186   0.455284286852823   0.058860979043544   1.0
N5   N   0.521481745144094   0.522151027750859   0.575559744166469   1.0
H6   H   0.357062524785484   0.628437818357433   0.538968088039560   1.0
H7   H   0.484113510533632   0.358841087759842   0.683978007268173   1.0
H8   H   0.625393412999159   0.482602711979936   0.410733567277774   1.0
H9   H   0.623532535290622   0.622719680449272   0.672213662280299   1.0




# HOIP entry ID:                    0174
# Khazana ID:                       2024
# Organic cation source:            T.D.Huan et al., Phys. Rev. B 93,094105(2016)
# Label:                            Ammonium Germanium Chloride
# Material class:                   Hybrid organic-inorganic perovskite ( MC_ino )
# Geometry class:                   Bulk crystalline materials ( GC_cry )
# Organic cation chemical formula:  NH4
# Number of atom types:             4
# Total number of atoms:            9
# Atom types:                        H N  Ge Cl
# Number of each atom:               4 1  1 3
# Bandgap, HSE06 (eV):              2.8957
# Bandgap, GGA (eV):                2.1817
# Kpoint for VBM:                   0.5, 0.5, 0.5
# Kpoint for CBM:                   0.4474, 0.4474, 0.4474
# Dielectric constant, electronic:  3.7507
# Dielectric constant, ionic:       7.8365
# Dielectric constant, total:       11.5873
# Refractive index:                 1.9367
# Atomization energy (eV/atom):     -3.9273
# Relative energy1 (eV/atom):       0.4119
# Relative energy2 (eV/atom):       0.7333
# Volume of the unit cell (A^3):    157.8
# Density (g/cm^3):                 2.0732
# Tool:                             VASP
# Pseudopotential:                  PAW
# Note:                             ENCUT=400eV, k-spacing_relax=0.20/Angstrom, k-spacing_bandgap=0.15/Angstrom
# Created by:                       C.Kim, T.D.Huan, S.Krishnan, R. Ramprasad