data_1
_audit_creation_method   'Generated by vasp2cif'
_cell_length_a    5.77346791148
_cell_length_b    6.0956328335
_cell_length_c    6.30568317817
_cell_angle_alpha    87.307996124
_cell_angle_beta    88.468755382
_cell_angle_gamma    101.966324237

_symmetry_space_group_name_H-M    'P 1'
loop_
_atom_site_label
_atom_site_type_symbol
_atom_site_fract_x
_atom_site_fract_y
_atom_site_fract_z
_atom_site_occupancy
C1   C   0.650618958689691   0.319592522096095   0.537085355256515   1.0
C2   C   0.420668815548559   0.574184165021315   0.713453235522870   1.0
C3   C   0.378950492826910   0.514394870918082   0.331256542391493   1.0
H4   H   0.772975226408150   0.342139548252881   0.666664888139920   1.0
H5   H   0.546707148847929   0.597969638816629   0.839413696611466   1.0
H6   H   0.468439332520106   0.474112322230454   0.189112835819600   1.0
H7   H   0.330202247752567   0.676319754130809   0.310348909750822   1.0
H8   H   0.350924368634935   0.724872691653289   0.682486948592185   1.0
H9   H   0.686517842384433   0.661729862138266   0.479399692490077   1.0
H10   H   0.223998516928496   0.383191249112528   0.374997690680480   1.0
H11   H   0.506891541690294   0.174782674993530   0.573297698958875   1.0
H12   H   0.276208442420575   0.431155032397676   0.753480354113691   1.0
H13   H   0.741828555689089   0.302245794945300   0.387832749582316   1.0
Cl14   Cl   0.445539599127898   0.040518673317209   0.033481084255371   1.0
Cl15   Cl   0.938221905187355   0.584947197822046   0.027732045767308   1.0
Cl16   Cl   0.002535286417547   0.944646460743947   0.464116010790242   1.0
N17   N   0.545816432746435   0.526809658818806   0.512653339944663   1.0
Ge18   Ge   0.021055286179049   0.983447882591179   0.066046921332081   1.0




# HOIP entry ID:                    0175
# Khazana ID:                       2025
# Organic cation source:            A. Mancini et al., J. Solid State Chem. 240, 55 (2016)
# Label:                            Trimethylammonium Germanium Chloride
# Material class:                   Hybrid organic-inorganic perovskite ( MC_ino )
# Geometry class:                   Bulk crystalline materials ( GC_cry )
# Organic cation chemical formula:  (CH3)3NH
# Number of atom types:             5
# Total number of atoms:            18
# Atom types:                       C H N  Ge Cl
# Number of each atom:              3 10 1  1 3
# Bandgap, HSE06 (eV):              3.9032
# Bandgap, GGA (eV):                2.97
# Kpoint for VBM:                   0.5, 0.5, 0.5
# Kpoint for CBM:                   0.5, 0.5, 0.5
# Dielectric constant, electronic:  2.9832
# Dielectric constant, ionic:       1.7479
# Dielectric constant, total:       4.7311
# Refractive index:                 1.7272
# Atomization energy (eV/atom):     -4.4846
# Relative energy1 (eV/atom):       0.0156
# Relative energy2 (eV/atom):       0.1763
# Volume of the unit cell (A^3):    216.7
# Density (g/cm^3):                 1.8321
# Tool:                             VASP
# Pseudopotential:                  PAW
# Note:                             ENCUT=400eV, k-spacing_relax=0.20/Angstrom, k-spacing_bandgap=0.15/Angstrom
# Created by:                       C.Kim, T.D.Huan, S.Krishnan, R. Ramprasad