data_1
_audit_creation_method   'Generated by vasp2cif'
_cell_length_a    5.7713005182
_cell_length_b    6.00444345684
_cell_length_c    6.38328024231
_cell_angle_alpha    89.1811275004
_cell_angle_beta    90.654882665
_cell_angle_gamma    102.88242908

_symmetry_space_group_name_H-M    'P 1'
loop_
_atom_site_label
_atom_site_type_symbol
_atom_site_fract_x
_atom_site_fract_y
_atom_site_fract_z
_atom_site_occupancy
C1   C   0.634052203108624   0.316945649744603   0.479429798600620   1.0
C2   C   0.375071336485426   0.534000210084670   0.669532738580209   1.0
C3   C   0.389410066274330   0.549098064152219   0.284118845565466   1.0
H4   H   0.737909056792468   0.314549396783662   0.622388863688712   1.0
H5   H   0.478136272032167   0.520961359947727   0.810551101300732   1.0
H6   H   0.502213930500915   0.544945735032428   0.149999967006103   1.0
H7   H   0.332943535949312   0.709694095959264   0.289981202994284   1.0
H8   H   0.316968126236908   0.694344752483673   0.664044092309808   1.0
H9   H   0.671886912895218   0.667395000310080   0.485851605133050   1.0
H10   H   0.236016011408886   0.406056513533045   0.281504434110325   1.0
H11   H   0.488123392421990   0.166706053256320   0.471730445974423   1.0
H12   H   0.223182201328044   0.389561970268744   0.659155535801766   1.0
H13   H   0.745198211621450   0.329024628224317   0.341511133780855   1.0
Cl14   Cl   0.413354696978310   0.045968708353058   0.975885505520786   1.0
Cl15   Cl   0.921739966417917   0.567593100444519   0.968915342614629   1.0
Cl16   Cl   0.991281345273940   0.951343207973295   0.408034826731352   1.0
N17   N   0.529657636248153   0.526989506128395   0.481503343802345   1.0
Ge18   Ge   0.991005098026001   0.974002047319971   0.013351216484551   1.0




# HOIP entry ID:                    0176
# Khazana ID:                       2026
# Organic cation source:            A. Mancini et al., J. Solid State Chem. 240, 55 (2016)
# Label:                            Trimethylammonium Germanium Chloride
# Material class:                   Hybrid organic-inorganic perovskite ( MC_ino )
# Geometry class:                   Bulk crystalline materials ( GC_cry )
# Organic cation chemical formula:  (CH3)3NH
# Number of atom types:             5
# Total number of atoms:            18
# Atom types:                       C H N  Ge Cl
# Number of each atom:              3 10 1  1 3
# Bandgap, HSE06 (eV):              3.8061
# Bandgap, GGA (eV):                2.88
# Kpoint for VBM:                   0.5, 0.5, 0.5
# Kpoint for CBM:                   0.5, 0.5, 0.5
# Dielectric constant, electronic:  3.0002
# Dielectric constant, ionic:       1.8937
# Dielectric constant, total:       4.8938
# Refractive index:                 1.7321
# Atomization energy (eV/atom):     -4.4844
# Relative energy1 (eV/atom):       0.0158
# Relative energy2 (eV/atom):       0.1765
# Volume of the unit cell (A^3):    215.61
# Density (g/cm^3):                 1.8414
# Tool:                             VASP
# Pseudopotential:                  PAW
# Note:                             ENCUT=400eV, k-spacing_relax=0.20/Angstrom, k-spacing_bandgap=0.15/Angstrom
# Created by:                       C.Kim, T.D.Huan, S.Krishnan, R. Ramprasad