data_1
_audit_creation_method   'Generated by vasp2cif'
_cell_length_a    5.94673953003
_cell_length_b    5.99584186908
_cell_length_c    6.23482476881
_cell_angle_alpha    100.871199475
_cell_angle_beta    87.7610749058
_cell_angle_gamma    84.2013058174

_symmetry_space_group_name_H-M    'P 1'
loop_
_atom_site_label
_atom_site_type_symbol
_atom_site_fract_x
_atom_site_fract_y
_atom_site_fract_z
_atom_site_occupancy
C1   C   0.306515017693684   0.349193957330712   0.462858014671618   1.0
C2   C   0.566217801897928   0.605807502404865   0.327906817534746   1.0
C3   C   0.655977589971855   0.433604002511842   0.652329605759363   1.0
H4   H   0.171022956001231   0.422976714579541   0.376631262826074   1.0
H5   H   0.427076532197617   0.669927820014891   0.240472205490583   1.0
H6   H   0.580067093894584   0.399917457097189   0.803175587228615   1.0
H7   H   0.774497276773779   0.559872798373249   0.687130426997335   1.0
H8   H   0.673245098706467   0.738878599594777   0.386315945004995   1.0
H9   H   0.379603946002291   0.665618081019041   0.622897114146689   1.0
H10   H   0.739414001405919   0.275254742509780   0.553340805442282   1.0
H11   H   0.399466661282929   0.200276777336782   0.357302916818185   1.0
H12   H   0.666580801834158   0.460879214170248   0.223310178160070   1.0
H13   H   0.240527547613311   0.305905133290487   0.612665676749181   1.0
Cl14   Cl   0.571264570120256   0.986032870505618   0.963519571392233   1.0
Cl15   Cl   0.073965465873087   0.587511985816526   0.001386777538606   1.0
Cl16   Cl   0.041161022520136   0.916463390971458   0.587970496704273   1.0
N17   N   0.470055211791362   0.524907794546650   0.524282982467476   1.0
Ge18   Ge   0.980801404419388   0.984441157926305   0.982503615067841   1.0




# HOIP entry ID:                    0177
# Khazana ID:                       2027
# Organic cation source:            A. Mancini et al., J. Solid State Chem. 240, 55 (2016)
# Label:                            Trimethylammonium Germanium Chloride
# Material class:                   Hybrid organic-inorganic perovskite ( MC_ino )
# Geometry class:                   Bulk crystalline materials ( GC_cry )
# Organic cation chemical formula:  (CH3)3NH
# Number of atom types:             5
# Total number of atoms:            18
# Atom types:                       C H N  Ge Cl
# Number of each atom:              3 10 1  1 3
# Bandgap, HSE06 (eV):              4.4265
# Bandgap, GGA (eV):                3.4408
# Kpoint for VBM:                   0.5, 0.5, 0.5
# Kpoint for CBM:                   0.4474, 0.4474, 0.4474
# Dielectric constant, electronic:  2.9557
# Dielectric constant, ionic:       1.8361
# Dielectric constant, total:       4.7918
# Refractive index:                 1.7192
# Atomization energy (eV/atom):     -4.4839
# Relative energy1 (eV/atom):       0.0163
# Relative energy2 (eV/atom):       0.177
# Volume of the unit cell (A^3):    216.82
# Density (g/cm^3):                 1.8311
# Tool:                             VASP
# Pseudopotential:                  PAW
# Note:                             ENCUT=400eV, k-spacing_relax=0.20/Angstrom, k-spacing_bandgap=0.15/Angstrom
# Created by:                       C.Kim, T.D.Huan, S.Krishnan, R. Ramprasad