data_1
_audit_creation_method   'Generated by vasp2cif'
_cell_length_a    6.10964759293
_cell_length_b    6.14546485217
_cell_length_c    6.11909674229
_cell_angle_alpha    97.2762039768
_cell_angle_beta    99.4006833804
_cell_angle_gamma    97.0791483167

_symmetry_space_group_name_H-M    'P 1'
loop_
_atom_site_label
_atom_site_type_symbol
_atom_site_fract_x
_atom_site_fract_y
_atom_site_fract_z
_atom_site_occupancy
C1   C   0.594987251934874   0.672103373093776   0.374522491632732   1.0
C2   C   0.316034245078257   0.696766214567646   0.630545374160555   1.0
C3   C   0.559186248343863   0.399072196711970   0.640477719948301   1.0
H4   H   0.673583043796867   0.554303646191151   0.276835181533699   1.0
H5   H   0.228303062761171   0.794776192519407   0.519045388454771   1.0
H6   H   0.634839755660678   0.285795991075524   0.534441360511458   1.0
H7   H   0.438763138006337   0.308552714290656   0.720910181459338   1.0
H8   H   0.197872651635023   0.595844505894448   0.705310954045189   1.0
H9   H   0.317745532960622   0.441743653754664   0.375256718453535   1.0
H10   H   0.688131169073401   0.507052138493052   0.764873918425934   1.0
H11   H   0.498566245234912   0.766791196286547   0.265870088562551   1.0
H12   H   0.440843346865783   0.803284176348754   0.760380288365809   1.0
H13   H   0.720326964514882   0.782865240862044   0.500328530400232   1.0
Cl14   Cl   0.019783052301030   0.133197163301546   0.702198619359983   1.0
Cl15   Cl   0.027400145236051   0.732372969368527   0.078768924377968   1.0
Cl16   Cl   0.641449553763728   0.126661507670178   0.088956490286037   1.0
N17   N   0.437233743600011   0.544273143464807   0.495387304675681   1.0
Ge18   Ge   0.033760849232500   0.125063976105274   0.093540465346237   1.0




# HOIP entry ID:                    0179
# Khazana ID:                       2029
# Organic cation source:            A. Mancini et al., J. Solid State Chem. 240, 55 (2016)
# Label:                            Trimethylammonium Germanium Chloride
# Material class:                   Hybrid organic-inorganic perovskite ( MC_ino )
# Geometry class:                   Bulk crystalline materials ( GC_cry )
# Organic cation chemical formula:  (CH3)3NH
# Number of atom types:             5
# Total number of atoms:            18
# Atom types:                       C H N  Ge Cl
# Number of each atom:              3 10 1  1 3
# Bandgap, HSE06 (eV):              4.3379
# Bandgap, GGA (eV):                3.3227
# Kpoint for VBM:                   0.5, 0.5, 0.5
# Kpoint for CBM:                   0.5, 0.5, 0.5
# Dielectric constant, electronic:  2.9287
# Dielectric constant, ionic:       1.654
# Dielectric constant, total:       4.5827
# Refractive index:                 1.7113
# Atomization energy (eV/atom):     -4.4775
# Relative energy1 (eV/atom):       0.0227
# Relative energy2 (eV/atom):       0.1834
# Volume of the unit cell (A^3):    222.4
# Density (g/cm^3):                 1.7852
# Tool:                             VASP
# Pseudopotential:                  PAW
# Note:                             ENCUT=400eV, k-spacing_relax=0.20/Angstrom, k-spacing_bandgap=0.15/Angstrom
# Created by:                       C.Kim, T.D.Huan, S.Krishnan, R. Ramprasad