data_1
_audit_creation_method   'Generated by vasp2cif'
_cell_length_a    4.67649449627
_cell_length_b    7.30282038887
_cell_length_c    6.8280926977
_cell_angle_alpha    102.573760002
_cell_angle_beta    78.7282961068
_cell_angle_gamma    87.599681621

_symmetry_space_group_name_H-M    'P 1'
loop_
_atom_site_label
_atom_site_type_symbol
_atom_site_fract_x
_atom_site_fract_y
_atom_site_fract_z
_atom_site_occupancy
C1   C   0.507626692112495   0.563533348123300   0.356047386816634   1.0
C2   C   0.739567834878052   0.795646365043808   0.588381220401153   1.0
C3   C   0.699233392202231   0.468364389855104   0.640048292844483   1.0
H4   H   0.404557001274903   0.681430303064381   0.313695484969045   1.0
H5   H   0.944185818736166   0.754682511256178   0.476290289447405   1.0
H6   H   0.564175124582007   0.350515509424973   0.622823599765589   1.0
H7   H   0.714036123814353   0.517828363489279   0.799750383430329   1.0
H8   H   0.618575758943628   0.911185104350245   0.554661280918658   1.0
H9   H   0.361939102365071   0.670456302639217   0.674887492478000   1.0
H10   H   0.916447935826035   0.427805057537164   0.543193498557081   1.0
H11   H   0.719608511666699   0.518578128450599   0.251978864396541   1.0
H12   H   0.777308793668084   0.834299109169422   0.743632739501749   1.0
H13   H   0.371695662610669   0.445909334874955   0.350878255141310   1.0
Cl14   Cl   0.347859715613701   0.197965248969823   0.949434361336898   1.0
Cl15   Cl   0.103232874291543   0.732474299177042   0.006544743487723   1.0
Cl16   Cl   0.218509562860881   0.086729863120198   0.434171578120477   1.0
N17   N   0.559646289503696   0.627706070489474   0.571616923007568   1.0
Ge18   Ge   0.967053805049900   0.072470690964948   0.151303605379454   1.0




# HOIP entry ID:                    0180
# Khazana ID:                       2030
# Organic cation source:            A. Mancini et al., J. Solid State Chem. 240, 55 (2016)
# Label:                            Trimethylammonium Germanium Chloride
# Material class:                   Hybrid organic-inorganic perovskite ( MC_ino )
# Geometry class:                   Bulk crystalline materials ( GC_cry )
# Organic cation chemical formula:  (CH3)3NH
# Number of atom types:             5
# Total number of atoms:            18
# Atom types:                       C H N  Ge Cl
# Number of each atom:              3 10 1  1 3
# Bandgap, HSE06 (eV):              4.7034
# Bandgap, GGA (eV):                3.6907
# Kpoint for VBM:                   0.5, 0.1, 0.5
# Kpoint for CBM:                   0, 0.1, 0.5
# Dielectric constant, electronic:  2.8262
# Dielectric constant, ionic:       1.8019
# Dielectric constant, total:       4.6281
# Refractive index:                 1.6811
# Atomization energy (eV/atom):     -4.4699
# Relative energy1 (eV/atom):       0.0303
# Relative energy2 (eV/atom):       0.191
# Volume of the unit cell (A^3):    222.34
# Density (g/cm^3):                 1.7857
# Tool:                             VASP
# Pseudopotential:                  PAW
# Note:                             ENCUT=400eV, k-spacing_relax=0.20/Angstrom, k-spacing_bandgap=0.15/Angstrom
# Created by:                       C.Kim, T.D.Huan, S.Krishnan, R. Ramprasad