data_1
_audit_creation_method   'Generated by vasp2cif'
_cell_length_a    6.12580224933
_cell_length_b    5.06290329027
_cell_length_c    7.39006154739
_cell_angle_alpha    91.4035711114
_cell_angle_beta    82.7586827606
_cell_angle_gamma    78.9743938146

_symmetry_space_group_name_H-M    'P 1'
loop_
_atom_site_label
_atom_site_type_symbol
_atom_site_fract_x
_atom_site_fract_y
_atom_site_fract_z
_atom_site_occupancy
C1   C   0.298105144056225   0.526146940373122   0.441472516326131   1.0
C2   C   0.601037485794018   0.767743529601358   0.508421426474359   1.0
C3   C   0.501297145043687   0.414401445289691   0.713159054858355   1.0
H4   H   0.225677892442292   0.697344818228996   0.367230470869003   1.0
H5   H   0.529182661028657   0.934280710631068   0.430533051037789   1.0
H6   H   0.364274169268552   0.317954987825014   0.767139636132998   1.0
H7   H   0.565168732700646   0.508079078410533   0.824021826602232   1.0
H8   H   0.680158285895875   0.837387528137400   0.619569225330556   1.0
H9   H   0.295410190758221   0.777291572163386   0.666554384278761   1.0
H10   H   0.635688988609469   0.271810458791222   0.633098665316196   1.0
H11   H   0.420954281212305   0.383037676216264   0.349672096664273   1.0
H12   H   0.721372430097255   0.620008664271266   0.418493995941775   1.0
H13   H   0.167381369883979   0.428457005937098   0.507198998698423   1.0
Cl14   Cl   0.532938800811911   0.931906952908082   0.045178272578153   1.0
Cl15   Cl   0.940329358383914   0.153529901493853   0.275691449220701   1.0
Cl16   Cl   0.016169277859821   0.087802990825608   0.782864638956326   1.0
N17   N   0.415093653439730   0.631313507159086   0.588691134456415   1.0
Ge18   Ge   0.930280132713499   0.817162231736984   0.044679156257649   1.0




# HOIP entry ID:                    0181
# Khazana ID:                       2031
# Organic cation source:            A. Mancini et al., J. Solid State Chem. 240, 55 (2016)
# Label:                            Trimethylammonium Germanium Chloride
# Material class:                   Hybrid organic-inorganic perovskite ( MC_ino )
# Geometry class:                   Bulk crystalline materials ( GC_cry )
# Organic cation chemical formula:  (CH3)3NH
# Number of atom types:             5
# Total number of atoms:            18
# Atom types:                       C H N  Ge Cl
# Number of each atom:              3 10 1  1 3
# Bandgap, HSE06 (eV):              4.8959
# Bandgap, GGA (eV):                3.8589
# Kpoint for VBM:                   0.1667, 0.5, 0.5
# Kpoint for CBM:                   0.1667, 0, 0.3
# Dielectric constant, electronic:  2.8286
# Dielectric constant, ionic:       1.5472
# Dielectric constant, total:       4.3758
# Refractive index:                 1.6819
# Atomization energy (eV/atom):     -4.4767
# Relative energy1 (eV/atom):       0.0235
# Relative energy2 (eV/atom):       0.1842
# Volume of the unit cell (A^3):    222.89
# Density (g/cm^3):                 1.7813
# Tool:                             VASP
# Pseudopotential:                  PAW
# Note:                             ENCUT=400eV, k-spacing_relax=0.20/Angstrom, k-spacing_bandgap=0.15/Angstrom
# Created by:                       C.Kim, T.D.Huan, S.Krishnan, R. Ramprasad