data_1
_audit_creation_method   'Generated by vasp2cif'
_cell_length_a    6.17477031142
_cell_length_b    4.9296272525
_cell_length_c    7.38381962671
_cell_angle_alpha    90.7425798439
_cell_angle_beta    93.825803268
_cell_angle_gamma    75.2180838151

_symmetry_space_group_name_H-M    'P 1'
loop_
_atom_site_label
_atom_site_type_symbol
_atom_site_fract_x
_atom_site_fract_y
_atom_site_fract_z
_atom_site_occupancy
C1   C   0.531077449249956   0.873640628402498   0.387700790857281   1.0
C2   C   0.452517376688448   0.914569837748729   0.715885593789558   1.0
C3   C   0.258902857071966   0.634993956308612   0.510784401673682   1.0
H4   H   0.598986271659243   0.056058523710597   0.406028446820017   1.0
H5   H   0.321453081925533   0.929638805836966   0.808971439441798   1.0
H6   H   0.200751934738022   0.613206292274953   0.370618672656576   1.0
H7   H   0.121860831820293   0.666239357181141   0.600588069553879   1.0
H8   H   0.587556357639180   0.726826812458860   0.742785114165144   1.0
H9   H   0.223888337637177   0.058903794311156   0.493944074197458   1.0
H10   H   0.393448693901704   0.453352189025658   0.553868056961441   1.0
H11   H   0.663125612562794   0.680924219116577   0.413307052580244   1.0
H12   H   0.517220605538668   0.099832795458894   0.724096328010944   1.0
H13   H   0.450896584027746   0.873395376727636   0.251853426450197   1.0
Cl14   Cl   0.936915596681168   0.184304543244622   0.236849300812516   1.0
Cl15   Cl   0.903006451650647   0.253387487955649   0.736948835045837   1.0
Cl16   Cl   0.336877818474171   0.448300788486300   0.028711569535929   1.0
N17   N   0.356373762563685   0.886629379800738   0.524702985006726   1.0
Ge18   Ge   0.938830376169712   0.536475211950410   0.010475842440940   1.0




# HOIP entry ID:                    0182
# Khazana ID:                       2032
# Organic cation source:            A. Mancini et al., J. Solid State Chem. 240, 55 (2016)
# Label:                            Trimethylammonium Germanium Chloride
# Material class:                   Hybrid organic-inorganic perovskite ( MC_ino )
# Geometry class:                   Bulk crystalline materials ( GC_cry )
# Organic cation chemical formula:  (CH3)3NH
# Number of atom types:             5
# Total number of atoms:            18
# Atom types:                       C H N  Ge Cl
# Number of each atom:              3 10 1  1 3
# Bandgap, HSE06 (eV):              4.8705
# Bandgap, GGA (eV):                3.8502
# Kpoint for VBM:                   0.3333, 0.5, 0.5
# Kpoint for CBM:                   0.5, 0, 0.5
# Dielectric constant, electronic:  2.9017
# Dielectric constant, ionic:       2.1592
# Dielectric constant, total:       5.0609
# Refractive index:                 1.7035
# Atomization energy (eV/atom):     -4.4745
# Relative energy1 (eV/atom):       0.0258
# Relative energy2 (eV/atom):       0.1865
# Volume of the unit cell (A^3):    216.83
# Density (g/cm^3):                 1.831
# Tool:                             VASP
# Pseudopotential:                  PAW
# Note:                             ENCUT=400eV, k-spacing_relax=0.20/Angstrom, k-spacing_bandgap=0.15/Angstrom
# Created by:                       C.Kim, T.D.Huan, S.Krishnan, R. Ramprasad