data_1
_audit_creation_method   'Generated by vasp2cif'
_cell_length_a    5.99420420052
_cell_length_b    5.82680683829
_cell_length_c    5.79958404001
_cell_angle_alpha    90.5213216031
_cell_angle_beta    90.0046610758
_cell_angle_gamma    84.3831181725

_symmetry_space_group_name_H-M    'P 1'
loop_
_atom_site_label
_atom_site_type_symbol
_atom_site_fract_x
_atom_site_fract_y
_atom_site_fract_z
_atom_site_occupancy
Cl1   Cl   0.016237313214575   0.984846437781336   0.606911583571865   1.0
Cl2   Cl   0.596014211308116   0.058053482910296   0.059208167895328   1.0
Cl3   Cl   0.034002135864696   0.431626996001278   0.061787182782638   1.0
H4   H   0.398246940681531   0.887527455009590   0.571737428118411   1.0
H5   H   0.661384090957291   0.555958452140835   0.272261061600190   1.0
H6   H   0.680437674986571   0.837409249005148   0.565178891810440   1.0
H7   H   0.303535918803220   0.341542189630488   0.554619903754386   1.0
H8   H   0.673214183222605   0.541768681413586   0.836698942275305   1.0
H9   H   0.377588594594982   0.619349134807862   0.863881876718601   1.0
H10   H   0.365043572071023   0.635386538615720   0.262203459755376   1.0
H11   H   0.596756308485645   0.248085781187697   0.545877029318120   1.0
C12   C   0.515032849969337   0.572498491309616   0.745753430814808   1.0
C13   C   0.507287492718696   0.582152472034238   0.371387639362716   1.0
C14   C   0.472223495193987   0.396600315472142   0.553382213177827   1.0
Ge15   Ge   0.999344956146651   0.026917253519741   0.046258130723182   1.0
N16   N   0.531690261781137   0.762327069160456   0.564263058320819   1.0




# HOIP entry ID:                    0183
# Khazana ID:                       2033
# Organic cation source:            B. Zhou et al., Angew. Chem. Int. Ed. 50, 11441 (2011)
# Label:                            Azetidinium Germanium Chloride
# Material class:                   Hybrid organic-inorganic perovskite ( MC_ino )
# Geometry class:                   Bulk crystalline materials ( GC_cry )
# Organic cation chemical formula:  C3H6N2
# Number of atom types:             5
# Total number of atoms:            16
# Atom types:                       C H N  Ge Cl
# Number of each atom:              3 8 1  1 3
# Bandgap, HSE06 (eV):              3.6243
# Bandgap, GGA (eV):                2.7352
# Kpoint for VBM:                   0.5, 0.5, 0.5
# Kpoint for CBM:                   0.5, 0.5, 0.5
# Dielectric constant, electronic:  3.233
# Dielectric constant, ionic:       2.954
# Dielectric constant, total:       6.187
# Refractive index:                 1.7981
# Atomization energy (eV/atom):     -4.5527
# Relative energy1 (eV/atom):       0.0562
# Relative energy2 (eV/atom):       0.237
# Volume of the unit cell (A^3):    201.58
# Density (g/cm^3):                 1.953
# Tool:                             VASP
# Pseudopotential:                  PAW
# Note:                             ENCUT=400eV, k-spacing_relax=0.20/Angstrom, k-spacing_bandgap=0.15/Angstrom
# Created by:                       C.Kim, T.D.Huan, S.Krishnan, R. Ramprasad