data_1
_audit_creation_method   'Generated by vasp2cif'
_cell_length_a    5.86712079157
_cell_length_b    5.88981886102
_cell_length_c    5.90403594223
_cell_angle_alpha    92.6473381128
_cell_angle_beta    83.9269009249
_cell_angle_gamma    91.291812964

_symmetry_space_group_name_H-M    'P 1'
loop_
_atom_site_label
_atom_site_type_symbol
_atom_site_fract_x
_atom_site_fract_y
_atom_site_fract_z
_atom_site_occupancy
Cl1   Cl   0.509652008973475   0.063886855842689   0.966628147881828   1.0
Cl2   Cl   0.973571411071347   0.111293852979060   0.499771766361832   1.0
Cl3   Cl   0.951927349284631   0.528976208481737   0.954965198584148   1.0
H4   H   0.498742757202578   0.903435698794183   0.308926891412334   1.0
H5   H   0.715626234518801   0.685828593741455   0.657116568601126   1.0
H6   H   0.411162281732260   0.912110776142633   0.589445037352434   1.0
H7   H   0.507653532262815   0.294224997539658   0.400429102552231   1.0
H8   H   0.128521760273564   0.630753381231166   0.510571067899384   1.0
H9   H   0.277949582090983   0.580016225864007   0.232778537940504   1.0
H10   H   0.774490720974015   0.625465488947711   0.356095018243934   1.0
H11   H   0.406122027329786   0.395033596693580   0.682177186965127   1.0
C12   C   0.294171098360586   0.604487341747905   0.414148999379392   1.0
C13   C   0.643656590718287   0.637345751989102   0.500240327703303   1.0
C14   C   0.461558532950555   0.443510282591838   0.508987577930412   1.0
Ge15   Ge   0.939442171078156   0.121939187360454   0.915664724417304   1.0
N16   N   0.460701941178165   0.806991760052910   0.449983846774636   1.0




# HOIP entry ID:                    0184
# Khazana ID:                       2034
# Organic cation source:            B. Zhou et al., Angew. Chem. Int. Ed. 50, 11441 (2011)
# Label:                            Azetidinium Germanium Chloride
# Material class:                   Hybrid organic-inorganic perovskite ( MC_ino )
# Geometry class:                   Bulk crystalline materials ( GC_cry )
# Organic cation chemical formula:  C3H6N2
# Number of atom types:             5
# Total number of atoms:            16
# Atom types:                       C H N  Ge Cl
# Number of each atom:              3 8 1  1 3
# Bandgap, HSE06 (eV):              3.5629
# Bandgap, GGA (eV):                2.6892
# Kpoint for VBM:                   0.5, 0.5, 0.5
# Kpoint for CBM:                   0.5, 0.5, 0.5
# Dielectric constant, electronic:  3.2
# Dielectric constant, ionic:       2.8412
# Dielectric constant, total:       6.0412
# Refractive index:                 1.7889
# Atomization energy (eV/atom):     -4.5503
# Relative energy1 (eV/atom):       0.0586
# Relative energy2 (eV/atom):       0.2394
# Volume of the unit cell (A^3):    202.63
# Density (g/cm^3):                 1.9428
# Tool:                             VASP
# Pseudopotential:                  PAW
# Note:                             ENCUT=400eV, k-spacing_relax=0.20/Angstrom, k-spacing_bandgap=0.15/Angstrom
# Created by:                       C.Kim, T.D.Huan, S.Krishnan, R. Ramprasad