data_1
_audit_creation_method   'Generated by vasp2cif'
_cell_length_a    5.6888504876
_cell_length_b    5.84742907458
_cell_length_c    6.12645752625
_cell_angle_alpha    94.6223346701
_cell_angle_beta    90.3294321984
_cell_angle_gamma    96.9866518295

_symmetry_space_group_name_H-M    'P 1'
loop_
_atom_site_label
_atom_site_type_symbol
_atom_site_fract_x
_atom_site_fract_y
_atom_site_fract_z
_atom_site_occupancy
Cl1   Cl   0.584012293460934   0.004566139521542   0.977270331391374   1.0
Cl2   Cl   0.007991140116909   0.040240091039066   0.410321319071303   1.0
Cl3   Cl   0.053052317726124   0.477764792297736   0.011152261800938   1.0
H4   H   0.387421122630978   0.643057913251392   0.222746095141054   1.0
H5   H   0.817447754166017   0.540299364631185   0.419040411387054   1.0
H6   H   0.573715998764698   0.829205079956914   0.383691217012113   1.0
H7   H   0.436425820247449   0.282708343538025   0.679790465566300   1.0
H8   H   0.300145308775278   0.765081521271241   0.673441543974007   1.0
H9   H   0.158869922151323   0.514479000169037   0.513930538041037   1.0
H10   H   0.587841603846303   0.329092617276302   0.302894072198427   1.0
H11   H   0.620285725877972   0.536335508562126   0.783564992115112   1.0
C12   C   0.326004853007298   0.610339963776802   0.571708004155061   1.0
C13   C   0.630524356376185   0.476706403975214   0.421939116809335   1.0
C14   C   0.508901776656485   0.456523690828039   0.646036205649256   1.0
Ge15   Ge   0.010525818215966   0.055813078290621   0.010564308408571   1.0
N16   N   0.478084187980148   0.667766491614722   0.370479117279136   1.0




# HOIP entry ID:                    0185
# Khazana ID:                       2035
# Organic cation source:            B. Zhou et al., Angew. Chem. Int. Ed. 50, 11441 (2011)
# Label:                            Azetidinium Germanium Chloride
# Material class:                   Hybrid organic-inorganic perovskite ( MC_ino )
# Geometry class:                   Bulk crystalline materials ( GC_cry )
# Organic cation chemical formula:  C3H6N2
# Number of atom types:             5
# Total number of atoms:            16
# Atom types:                       C H N  Ge Cl
# Number of each atom:              3 8 1  1 3
# Bandgap, HSE06 (eV):              3.7714
# Bandgap, GGA (eV):                2.8624
# Kpoint for VBM:                   0.5, 0.5, 0.5
# Kpoint for CBM:                   0.5, 0.5, 0.5
# Dielectric constant, electronic:  3.1994
# Dielectric constant, ionic:       3.1597
# Dielectric constant, total:       6.3591
# Refractive index:                 1.7887
# Atomization energy (eV/atom):     -4.5505
# Relative energy1 (eV/atom):       0.0585
# Relative energy2 (eV/atom):       0.2393
# Volume of the unit cell (A^3):    201.6
# Density (g/cm^3):                 1.9528
# Tool:                             VASP
# Pseudopotential:                  PAW
# Note:                             ENCUT=400eV, k-spacing_relax=0.20/Angstrom, k-spacing_bandgap=0.15/Angstrom
# Created by:                       C.Kim, T.D.Huan, S.Krishnan, R. Ramprasad