data_1
_audit_creation_method   'Generated by vasp2cif'
_cell_length_a    5.82963725834
_cell_length_b    5.86709576491
_cell_length_c    5.83726345718
_cell_angle_alpha    85.8260952634
_cell_angle_beta    81.5833034834
_cell_angle_gamma    94.2304806344

_symmetry_space_group_name_H-M    'P 1'
loop_
_atom_site_label
_atom_site_type_symbol
_atom_site_fract_x
_atom_site_fract_y
_atom_site_fract_z
_atom_site_occupancy
Cl1   Cl   0.017996828051842   0.050263462524136   0.451524527764050   1.0
Cl2   Cl   0.613430333965141   0.049739073278054   0.041890044673153   1.0
Cl3   Cl   0.052778751904619   0.517578944068305   0.013251346636494   1.0
H4   H   0.354564574986071   0.822877566637061   0.717537886480443   1.0
H5   H   0.398972808922629   0.654669990664303   0.263039891199682   1.0
H6   H   0.573544214167043   0.900087113504114   0.498721937260271   1.0
H7   H   0.454771016063297   0.250590845758900   0.599405364237491   1.0
H8   H   0.803555953843350   0.643026023782447   0.662360097481283   1.0
H9   H   0.557870107705988   0.533098990865241   0.871489514407756   1.0
H10   H   0.189697195429915   0.543634314687203   0.508124158133207   1.0
H11   H   0.677499661748783   0.383166489346486   0.378222202434479   1.0
C12   C   0.621313334182240   0.580264599423238   0.688682723155026   1.0
C13   C   0.373071727294366   0.587452799808574   0.443613040589341   1.0
C14   C   0.540680171468452   0.413116567676681   0.517490241022458   1.0
Ge15   Ge   0.032730015482336   0.101651323525310   0.032098594098265   1.0
N16   N   0.474193304783860   0.763811894450008   0.594348430426564   1.0




# HOIP entry ID:                    0186
# Khazana ID:                       2036
# Organic cation source:            B. Zhou et al., Angew. Chem. Int. Ed. 50, 11441 (2011)
# Label:                            Azetidinium Germanium Chloride
# Material class:                   Hybrid organic-inorganic perovskite ( MC_ino )
# Geometry class:                   Bulk crystalline materials ( GC_cry )
# Organic cation chemical formula:  C3H6N2
# Number of atom types:             5
# Total number of atoms:            16
# Atom types:                       C H N  Ge Cl
# Number of each atom:              3 8 1  1 3
# Bandgap, HSE06 (eV):              3.6555
# Bandgap, GGA (eV):                2.7416
# Kpoint for VBM:                   0.5, 0.5, 0.5
# Kpoint for CBM:                   0.5, 0.5, 0.5
# Dielectric constant, electronic:  3.2821
# Dielectric constant, ionic:       2.951
# Dielectric constant, total:       6.2331
# Refractive index:                 1.8117
# Atomization energy (eV/atom):     -4.5499
# Relative energy1 (eV/atom):       0.0591
# Relative energy2 (eV/atom):       0.2399
# Volume of the unit cell (A^3):    196.26
# Density (g/cm^3):                 2.0059
# Tool:                             VASP
# Pseudopotential:                  PAW
# Note:                             ENCUT=400eV, k-spacing_relax=0.20/Angstrom, k-spacing_bandgap=0.15/Angstrom
# Created by:                       C.Kim, T.D.Huan, S.Krishnan, R. Ramprasad