data_1
_audit_creation_method   'Generated by vasp2cif'
_cell_length_a    7.85840264146
_cell_length_b    5.82264715259
_cell_length_c    4.71247763657
_cell_angle_alpha    99.570118604
_cell_angle_beta    79.80904924
_cell_angle_gamma    88.7151698806

_symmetry_space_group_name_H-M    'P 1'
loop_
_atom_site_label
_atom_site_type_symbol
_atom_site_fract_x
_atom_site_fract_y
_atom_site_fract_z
_atom_site_occupancy
Cl1   Cl   0.768447126142596   0.676186881397365   0.233316724680089   1.0
Cl2   Cl   0.003173540759028   0.073194594102077   0.829720253452522   1.0
Cl3   Cl   0.244774637965620   0.653940395564268   0.115211344474782   1.0
H4   H   0.638983684305997   0.985694665767697   0.933853248777028   1.0
H5   H   0.311642357860184   0.273552142181307   0.021475822506365   1.0
H6   H   0.334350189868239   0.979077875041578   0.963775864913815   1.0
H7   H   0.435192773164041   0.967338587624514   0.456843032979254   1.0
H8   H   0.340456277318254   0.259999314039329   0.522207028746445   1.0
H9   H   0.617927322526941   0.419522487346033   0.641612159623908   1.0
H10   H   0.724364201507539   0.144662173385057   0.469415187769053   1.0
H11   H   0.600797822606149   0.285081732515348   0.110406094220519   1.0
C12   C   0.432742629307583   0.142768745223127   0.582345500099310   1.0
C13   C   0.581589269855202   0.155683635183237   0.926796230938925   1.0
C14   C   0.613273774210473   0.230770701767788   0.624508019190062   1.0
Ge15   Ge   0.999274878832875   0.659649038423374   0.818123741516093   1.0
N16   N   0.388519513769253   0.129377030437890   0.909439746111810   1.0




# HOIP entry ID:                    0187
# Khazana ID:                       2037
# Organic cation source:            B. Zhou et al., Angew. Chem. Int. Ed. 50, 11441 (2011)
# Label:                            Azetidinium Germanium Chloride
# Material class:                   Hybrid organic-inorganic perovskite ( MC_ino )
# Geometry class:                   Bulk crystalline materials ( GC_cry )
# Organic cation chemical formula:  C3H6N2
# Number of atom types:             5
# Total number of atoms:            16
# Atom types:                       C H N  Ge Cl
# Number of each atom:              3 8 1  1 3
# Bandgap, HSE06 (eV):              4.3151
# Bandgap, GGA (eV):                3.2771
# Kpoint for VBM:                   0.5, 0.5, 0.5
# Kpoint for CBM:                   0.5, 0.5, 0
# Dielectric constant, electronic:  2.9987
# Dielectric constant, ionic:       2.2118
# Dielectric constant, total:       5.2105
# Refractive index:                 1.7317
# Atomization energy (eV/atom):     -4.5387
# Relative energy1 (eV/atom):       0.0703
# Relative energy2 (eV/atom):       0.251
# Volume of the unit cell (A^3):    208.97
# Density (g/cm^3):                 1.8839
# Tool:                             VASP
# Pseudopotential:                  PAW
# Note:                             ENCUT=400eV, k-spacing_relax=0.20/Angstrom, k-spacing_bandgap=0.15/Angstrom
# Created by:                       C.Kim, T.D.Huan, S.Krishnan, R. Ramprasad