data_1
_audit_creation_method   'Generated by vasp2cif'
_cell_length_a    7.92438296461
_cell_length_b    5.65018724613
_cell_length_c    4.68809976845
_cell_angle_alpha    94.4909622379
_cell_angle_beta    84.6814773631
_cell_angle_gamma    86.2274754255

_symmetry_space_group_name_H-M    'P 1'
loop_
_atom_site_label
_atom_site_type_symbol
_atom_site_fract_x
_atom_site_fract_y
_atom_site_fract_z
_atom_site_occupancy
Cl1   Cl   0.190713084164294   0.633683725188725   0.783709898944821   1.0
Cl2   Cl   0.971540023452349   0.113796073117534   0.249495882431603   1.0
Cl3   Cl   0.725040402476317   0.699467289016027   0.868851646591629   1.0
H4   H   0.402953584156037   0.984946103289715   0.944312161019241   1.0
H5   H   0.600844951148382   0.390515382996682   0.050921174540079   1.0
H6   H   0.672254184005347   0.103954291557244   0.050834542615256   1.0
H7   H   0.652688288529767   0.154654363929389   0.549998920790152   1.0
H8   H   0.508376148245617   0.413919622881942   0.548726297022696   1.0
H9   H   0.270331555882940   0.142336247535617   0.550125923228322   1.0
H10   H   0.417861550829500   0.891809014131184   0.446004952349320   1.0
H11   H   0.310711442976839   0.280187566510364   0.057923763771932   1.0
C12   C   0.542258789865912   0.231391471668886   0.459203616469530   1.0
C13   C   0.398140579389434   0.135117661070787   0.104263488872355   1.0
C14   C   0.388326142520647   0.080144578765257   0.421758761998945   1.0
Ge15   Ge   0.972730718522961   0.685290266528959   0.185279431380664   1.0
N16   N   0.575668553833644   0.229586341811689   0.130879537973513   1.0




# HOIP entry ID:                    0188
# Khazana ID:                       2038
# Organic cation source:            B. Zhou et al., Angew. Chem. Int. Ed. 50, 11441 (2011)
# Label:                            Azetidinium Germanium Chloride
# Material class:                   Hybrid organic-inorganic perovskite ( MC_ino )
# Geometry class:                   Bulk crystalline materials ( GC_cry )
# Organic cation chemical formula:  C3H6N2
# Number of atom types:             5
# Total number of atoms:            16
# Atom types:                       C H N  Ge Cl
# Number of each atom:              3 8 1  1 3
# Bandgap, HSE06 (eV):              4.0069
# Bandgap, GGA (eV):                2.973
# Kpoint for VBM:                   0.5, 0.5, 0.5
# Kpoint for CBM:                   0.5, 0.5, 0
# Dielectric constant, electronic:  3.0565
# Dielectric constant, ionic:       2.388
# Dielectric constant, total:       5.4445
# Refractive index:                 1.7483
# Atomization energy (eV/atom):     -4.5387
# Relative energy1 (eV/atom):       0.0702
# Relative energy2 (eV/atom):       0.251
# Volume of the unit cell (A^3):    207.8
# Density (g/cm^3):                 1.8945
# Tool:                             VASP
# Pseudopotential:                  PAW
# Note:                             ENCUT=400eV, k-spacing_relax=0.20/Angstrom, k-spacing_bandgap=0.15/Angstrom
# Created by:                       C.Kim, T.D.Huan, S.Krishnan, R. Ramprasad