data_1
_audit_creation_method   'Generated by vasp2cif'
_cell_length_a    7.74695771579
_cell_length_b    5.71174533144
_cell_length_c    4.70628564649
_cell_angle_alpha    90.1006397574
_cell_angle_beta    94.1473604009
_cell_angle_gamma    83.3481308858

_symmetry_space_group_name_H-M    'P 1'
loop_
_atom_site_label
_atom_site_type_symbol
_atom_site_fract_x
_atom_site_fract_y
_atom_site_fract_z
_atom_site_occupancy
Cl1   Cl   0.763818264228675   0.687307314518961   0.173167428035541   1.0
Cl2   Cl   0.029094355445132   0.234137524388316   0.800689661837929   1.0
Cl3   Cl   0.228096446806830   0.666586603886778   0.229637613163277   1.0
H4   H   0.682376508677649   0.165110074197109   0.087272661592060   1.0
H5   H   0.309093232431422   0.106260695645638   0.953174302340493   1.0
H6   H   0.479304527789282   0.892804788359371   0.000171780752460   1.0
H7   H   0.545208626837784   0.927585873468715   0.524784562312576   1.0
H8   H   0.340802618949013   0.113327991605352   0.472294606369957   1.0
H9   H   0.490970072678358   0.466638442639912   0.596102514546921   1.0
H10   H   0.695637209050460   0.289109075007112   0.586860804773849   1.0
H11   H   0.497857882771562   0.385456340328233   0.111112489042732   1.0
C12   C   0.465861872957817   0.083786491638342   0.595678448219608   1.0
C13   C   0.560616939612949   0.247466110785226   0.983564385978895   1.0
C14   C   0.565829659078624   0.299963485848607   0.663107692662237   1.0
Ge15   Ge   0.998433692071551   0.665082551893434   0.842561953004754   1.0
N16   N   0.437688090612895   0.056356635788923   0.913079095366768   1.0




# HOIP entry ID:                    0189
# Khazana ID:                       2039
# Organic cation source:            B. Zhou et al., Angew. Chem. Int. Ed. 50, 11441 (2011)
# Label:                            Azetidinium Germanium Chloride
# Material class:                   Hybrid organic-inorganic perovskite ( MC_ino )
# Geometry class:                   Bulk crystalline materials ( GC_cry )
# Organic cation chemical formula:  C3H6N2
# Number of atom types:             5
# Total number of atoms:            16
# Atom types:                       C H N  Ge Cl
# Number of each atom:              3 8 1  1 3
# Bandgap, HSE06 (eV):              4.1642
# Bandgap, GGA (eV):                3.1393
# Kpoint for VBM:                   0.5, 0.5, 0.5
# Kpoint for CBM:                   0.5, 0.5, 0
# Dielectric constant, electronic:  3.068
# Dielectric constant, ionic:       3.6613
# Dielectric constant, total:       6.7293
# Refractive index:                 1.7516
# Atomization energy (eV/atom):     -4.5396
# Relative energy1 (eV/atom):       0.0693
# Relative energy2 (eV/atom):       0.2501
# Volume of the unit cell (A^3):    206.3
# Density (g/cm^3):                 1.9083
# Tool:                             VASP
# Pseudopotential:                  PAW
# Note:                             ENCUT=400eV, k-spacing_relax=0.20/Angstrom, k-spacing_bandgap=0.15/Angstrom
# Created by:                       C.Kim, T.D.Huan, S.Krishnan, R. Ramprasad