data_1
_audit_creation_method   'Generated by vasp2cif'
_cell_length_a    8.18925947616
_cell_length_b    4.21819909977
_cell_length_c    6.34755866115
_cell_angle_alpha    67.1179090398
_cell_angle_beta    92.6969154716
_cell_angle_gamma    98.4679957141

_symmetry_space_group_name_H-M    'P 1'
loop_
_atom_site_label
_atom_site_type_symbol
_atom_site_fract_x
_atom_site_fract_y
_atom_site_fract_z
_atom_site_occupancy
Cl1   Cl   0.809784269398687   0.813307264936135   0.182805902023828   1.0
Cl2   Cl   0.093524671385997   0.281988085024228   0.526782363226088   1.0
Cl3   Cl   0.269242428433778   0.004524030081692   0.064264063525876   1.0
H4   H   0.552741632943346   0.439941816766435   0.809219784397275   1.0
H5   H   0.329900598641397   0.674787740270820   0.559153587081797   1.0
H6   H   0.317970060582699   0.945968401296114   0.686109631493586   1.0
H7   H   0.543465693759582   0.065937037559885   0.306877108996772   1.0
H8   H   0.499587065455075   0.378235740864412   0.412509500093512   1.0
H9   H   0.717015809237794   0.184127363175037   0.715861528165005   1.0
H10   H   0.769501818909634   0.915240281577051   0.582498742076073   1.0
H11   H   0.510649966614654   0.697979628557637   0.959972864627348   1.0
C12   C   0.531844353545365   0.118340566379697   0.459581948317668   1.0
C13   C   0.538481674770652   0.699616422944813   0.794149168504219   1.0
C14   C   0.667027556651678   0.998529995217739   0.640907939303476   1.0
Ge15   Ge   0.032764525128793   0.517404417787756   0.123249328975773   1.0
N16   N   0.400397874540876   0.840721207560501   0.623146539191684   1.0




# HOIP entry ID:                    0190
# Khazana ID:                       2040
# Organic cation source:            B. Zhou et al., Angew. Chem. Int. Ed. 50, 11441 (2011)
# Label:                            Azetidinium Germanium Chloride
# Material class:                   Hybrid organic-inorganic perovskite ( MC_ino )
# Geometry class:                   Bulk crystalline materials ( GC_cry )
# Organic cation chemical formula:  C3H6N2
# Number of atom types:             5
# Total number of atoms:            16
# Atom types:                       C H N  Ge Cl
# Number of each atom:              3 8 1  1 3
# Bandgap, HSE06 (eV):              4.8077
# Bandgap, GGA (eV):                3.7701
# Kpoint for VBM:                   -0.4, 0.25, 0.1429
# Kpoint for CBM:                   0.3, 0, 0.3571
# Dielectric constant, electronic:  3.1248
# Dielectric constant, ionic:       3.2688
# Dielectric constant, total:       6.3935
# Refractive index:                 1.7677
# Atomization energy (eV/atom):     -4.5378
# Relative energy1 (eV/atom):       0.0712
# Relative energy2 (eV/atom):       0.2519
# Volume of the unit cell (A^3):    199.8
# Density (g/cm^3):                 1.9704
# Tool:                             VASP
# Pseudopotential:                  PAW
# Note:                             ENCUT=400eV, k-spacing_relax=0.20/Angstrom, k-spacing_bandgap=0.15/Angstrom
# Created by:                       C.Kim, T.D.Huan, S.Krishnan, R. Ramprasad