data_1
_audit_creation_method   'Generated by vasp2cif'
_cell_length_a    5.88718467369
_cell_length_b    4.16041268706
_cell_length_c    8.35691344202
_cell_angle_alpha    81.236427099
_cell_angle_beta    90.4917708615
_cell_angle_gamma    99.0664271149

_symmetry_space_group_name_H-M    'P 1'
loop_
_atom_site_label
_atom_site_type_symbol
_atom_site_fract_x
_atom_site_fract_y
_atom_site_fract_z
_atom_site_occupancy
Cl1   Cl   0.875805681542246   0.813122805635970   0.804694470313777   1.0
Cl2   Cl   0.505407100547750   0.064453641469655   0.084528913988642   1.0
Cl3   Cl   0.961081645283329   0.697357790142711   0.255936284267584   1.0
H4   H   0.230598143700931   0.931522333336297   0.522489084580386   1.0
H5   H   0.480123365167159   0.274409028624881   0.315242024292701   1.0
H6   H   0.345173708192199   0.587601472875306   0.328282677824802   1.0
H7   H   0.716995882293311   0.376777487838446   0.542319533224131   1.0
H8   H   0.621053868970669   0.763924345962366   0.522448630698356   1.0
H9   H   0.291390831559149   0.509659048009517   0.717567192119347   1.0
H10   H   0.426516247703510   0.154701976206759   0.757887332033363   1.0
H11   H   0.064622498348420   0.255110890756626   0.501105175565733   1.0
C12   C   0.566622961039137   0.499249931966091   0.537070253954354   1.0
C13   C   0.234900537078445   0.192346098120538   0.524618956939818   1.0
C14   C   0.374604719108611   0.335887208853990   0.662422683394510   1.0
Ge15   Ge   0.917890371983660   0.156065854414642   0.026436230964237   1.0
N16   N   0.411322437481516   0.397240085786194   0.397440555838166   1.0




# HOIP entry ID:                    0193
# Khazana ID:                       2043
# Organic cation source:            B. Zhou et al., Angew. Chem. Int. Ed. 50, 11441 (2011)
# Label:                            Azetidinium Germanium Chloride
# Material class:                   Hybrid organic-inorganic perovskite ( MC_ino )
# Geometry class:                   Bulk crystalline materials ( GC_cry )
# Organic cation chemical formula:  C3H6N2
# Number of atom types:             5
# Total number of atoms:            16
# Atom types:                       C H N  Ge Cl
# Number of each atom:              3 8 1  1 3
# Bandgap, HSE06 (eV):              4.6681
# Bandgap, GGA (eV):                3.6586
# Kpoint for VBM:                   0.4286, -0.25, 0.4
# Kpoint for CBM:                   0.3571, 0, 0.5
# Dielectric constant, electronic:  3.174
# Dielectric constant, ionic:       3.3206
# Dielectric constant, total:       6.4946
# Refractive index:                 1.7816
# Atomization energy (eV/atom):     -4.5367
# Relative energy1 (eV/atom):       0.0722
# Relative energy2 (eV/atom):       0.253
# Volume of the unit cell (A^3):    199.74
# Density (g/cm^3):                 1.9709
# Tool:                             VASP
# Pseudopotential:                  PAW
# Note:                             ENCUT=400eV, k-spacing_relax=0.20/Angstrom, k-spacing_bandgap=0.15/Angstrom
# Created by:                       C.Kim, T.D.Huan, S.Krishnan, R. Ramprasad