data_1
_audit_creation_method   'Generated by vasp2cif'
_cell_length_a    5.5797822803
_cell_length_b    6.78487510895
_cell_length_c    5.59273842353
_cell_angle_alpha    90.1676004261
_cell_angle_beta    78.2386227014
_cell_angle_gamma    90.40036451

_symmetry_space_group_name_H-M    'P 1'
loop_
_atom_site_label
_atom_site_type_symbol
_atom_site_fract_x
_atom_site_fract_y
_atom_site_fract_z
_atom_site_occupancy
Cl1   Cl   0.335695333216030   0.743619334875490   0.061537383371487   1.0
Cl2   Cl   0.837686534778996   0.742339526247939   0.548854877336098   1.0
Cl3   Cl   0.868048960924192   0.121423359194878   0.084197736634458   1.0
H4   H   0.579541366293292   0.052226065451016   0.801751016649412   1.0
H5   H   0.313200198607369   0.902360918168270   0.524505737209033   1.0
H6   H   0.260432795827093   0.523804982906825   0.489065871390636   1.0
H7   H   0.570600773522600   0.426239502981708   0.803310384471835   1.0
H8   H   0.123876532331820   0.191521046872303   0.340678950294105   1.0
C9   C   0.471308082104016   0.335900668175128   0.698754466040832   1.0
C10   C   0.340597360035886   0.055877021492066   0.557528433305365   1.0
C11   C   0.319223952835380   0.384043151255987   0.544983067799272   1.0
Ge12   Ge   0.895146284239765   0.755442829880664   0.110208828124740   1.0
N13   N   0.481030006023708   0.132222282583221   0.702672534662874   1.0
N14   N   0.240471819259866   0.207239309914471   0.459600712709872   1.0




# HOIP entry ID:                    0197
# Khazana ID:                       2047
# Organic cation source:            B.Saparov et al., Chem. Rev. 116, 4558 (2016)
# Label:                            Imidazolium Germanium Chloride
# Material class:                   Hybrid organic-inorganic perovskite ( MC_ino )
# Geometry class:                   Bulk crystalline materials ( GC_cry )
# Organic cation chemical formula:  C3H5N2
# Number of atom types:             5
# Total number of atoms:            14
# Atom types:                       C H N  Ge Cl
# Number of each atom:              3 5 2  1 3
# Bandgap, HSE06 (eV):              3.5838
# Bandgap, GGA (eV):                2.7072
# Kpoint for VBM:                   0.5, 0.5, 0.5
# Kpoint for CBM:                   0.5, 0.5, 0.5
# Dielectric constant, electronic:  3.2147
# Dielectric constant, ionic:       3.0786
# Dielectric constant, total:       6.2933
# Refractive index:                 1.793
# Atomization energy (eV/atom):     -5.0197
# Relative energy1 (eV/atom):       0.2661
# Relative energy2 (eV/atom):       0.4727
# Volume of the unit cell (A^3):    207.28
# Density (g/cm^3):                 1.9872
# Tool:                             VASP
# Pseudopotential:                  PAW
# Note:                             ENCUT=400eV, k-spacing_relax=0.20/Angstrom, k-spacing_bandgap=0.15/Angstrom
# Created by:                       C.Kim, T.D.Huan, S.Krishnan, R. Ramprasad