data_1
_audit_creation_method   'Generated by vasp2cif'
_cell_length_a    5.69972093728
_cell_length_b    6.47960311843
_cell_length_c    5.60355075194
_cell_angle_alpha    96.2057422303
_cell_angle_beta    79.9113169623
_cell_angle_gamma    84.1364647784

_symmetry_space_group_name_H-M    'P 1'
loop_
_atom_site_label
_atom_site_type_symbol
_atom_site_fract_x
_atom_site_fract_y
_atom_site_fract_z
_atom_site_occupancy
Cl1   Cl   0.726586579938314   0.750390284077547   0.927663314264628   1.0
Cl2   Cl   0.153639079218408   0.791439931426133   0.399030913497725   1.0
Cl3   Cl   0.123933068707601   0.160429394825606   0.926403354826363   1.0
H4   H   0.390164209529836   0.063772623847576   0.285201592863522   1.0
H5   H   0.645891666229836   0.984413723685897   0.603176736588992   1.0
H6   H   0.782885204988105   0.575970228671004   0.391261250734708   1.0
H7   H   0.452444465816221   0.416186036837331   0.132258866397727   1.0
H8   H   0.874709598770288   0.294312026941604   0.665700789557988   1.0
C9   C   0.541209955401023   0.354616326091637   0.267818477452025   1.0
C10   C   0.637048172273516   0.121478705885480   0.511139758298221   1.0
C11   C   0.701602685951976   0.433747742380284   0.396480570482318   1.0
Ge12   Ge   0.149320975631220   0.779103942042624   0.838839647222606   1.0
N13   N   0.503700393469401   0.161670500170409   0.343080490577662   1.0
N14   N   0.758043944074345   0.285938533116926   0.546684237235517   1.0




# HOIP entry ID:                    0198
# Khazana ID:                       2048
# Organic cation source:            B.Saparov et al., Chem. Rev. 116, 4558 (2016)
# Label:                            Imidazolium Germanium Chloride
# Material class:                   Hybrid organic-inorganic perovskite ( MC_ino )
# Geometry class:                   Bulk crystalline materials ( GC_cry )
# Organic cation chemical formula:  C3H5N2
# Number of atom types:             5
# Total number of atoms:            14
# Atom types:                       C H N  Ge Cl
# Number of each atom:              3 5 2  1 3
# Bandgap, HSE06 (eV):              3.9021
# Bandgap, GGA (eV):                3.0363
# Kpoint for VBM:                   0.5, 0.5, 0.5
# Kpoint for CBM:                   0.4286, -0.4167, 0.4286
# Dielectric constant, electronic:  3.2771
# Dielectric constant, ionic:       3.0601
# Dielectric constant, total:       6.3372
# Refractive index:                 1.8103
# Atomization energy (eV/atom):     -5.0192
# Relative energy1 (eV/atom):       0.2666
# Relative energy2 (eV/atom):       0.4732
# Volume of the unit cell (A^3):    201
# Density (g/cm^3):                 2.0493
# Tool:                             VASP
# Pseudopotential:                  PAW
# Note:                             ENCUT=400eV, k-spacing_relax=0.20/Angstrom, k-spacing_bandgap=0.15/Angstrom
# Created by:                       C.Kim, T.D.Huan, S.Krishnan, R. Ramprasad