data_1
_audit_creation_method   'Generated by vasp2cif'
_cell_length_a    5.58553329158
_cell_length_b    3.94517234073
_cell_length_c    9.05474588493
_cell_angle_alpha    91.999716391
_cell_angle_beta    87.8883821218
_cell_angle_gamma    97.0562347076

_symmetry_space_group_name_H-M    'P 1'
loop_
_atom_site_label
_atom_site_type_symbol
_atom_site_fract_x
_atom_site_fract_y
_atom_site_fract_z
_atom_site_occupancy
Cl1   Cl   0.027844156926563   0.389887747826228   0.231563722404208   1.0
Cl2   Cl   0.468390381045244   0.893298321794825   0.988799586850476   1.0
Cl3   Cl   0.018755546934572   0.352359417368052   0.794974224116555   1.0
H4   H   0.419348837622974   0.001067552077179   0.738291880183136   1.0
H5   H   0.798287909335273   0.711246024934276   0.368816906067711   1.0
H6   H   0.461646095364673   0.012575194493084   0.268717287714697   1.0
H7   H   0.197368065736030   0.203514582523469   0.518641468835287   1.0
H8   H   0.780329092542007   0.702562095397411   0.653014952254945   1.0
C9   C   0.483914731454307   0.978356074851177   0.384566363856582   1.0
C10   C   0.353990496180219   0.070331609205026   0.507153891633872   1.0
C11   C   0.660542035404369   0.814429419004446   0.583295520323630   1.0
Ge12   Ge   0.031799980201086   0.793023204414399   0.010709892000271   1.0
N13   N   0.673213902945511   0.820634649843444   0.434880478555065   1.0
N14   N   0.467818768307262   0.966724106266911   0.629073825203625   1.0




# HOIP entry ID:                    0201
# Khazana ID:                       2051
# Organic cation source:            B.Saparov et al., Chem. Rev. 116, 4558 (2016)
# Label:                            Imidazolium Germanium Chloride
# Material class:                   Hybrid organic-inorganic perovskite ( MC_ino )
# Geometry class:                   Bulk crystalline materials ( GC_cry )
# Organic cation chemical formula:  C3H5N2
# Number of atom types:             5
# Total number of atoms:            14
# Atom types:                       C H N  Ge Cl
# Number of each atom:              3 5 2  1 3
# Bandgap, HSE06 (eV):              4.4171
# Bandgap, GGA (eV):                3.3055
# Kpoint for VBM:                   0.5, 0.2, 0
# Kpoint for CBM:                   0, 0, 0
# Dielectric constant, electronic:  3.3865
# Dielectric constant, ionic:       4.1407
# Dielectric constant, total:       7.5272
# Refractive index:                 1.8403
# Atomization energy (eV/atom):     -5.0169
# Relative energy1 (eV/atom):       0.2689
# Relative energy2 (eV/atom):       0.4755
# Volume of the unit cell (A^3):    197.79
# Density (g/cm^3):                 2.0826
# Tool:                             VASP
# Pseudopotential:                  PAW
# Note:                             ENCUT=400eV, k-spacing_relax=0.20/Angstrom, k-spacing_bandgap=0.15/Angstrom
# Created by:                       C.Kim, T.D.Huan, S.Krishnan, R. Ramprasad