data_1
_audit_creation_method   'Generated by vasp2cif'
_cell_length_a    5.76365563835
_cell_length_b    3.93423443159
_cell_length_c    9.41984746983
_cell_angle_alpha    112.398719719
_cell_angle_beta    94.8892546195
_cell_angle_gamma    81.8436949937

_symmetry_space_group_name_H-M    'P 1'
loop_
_atom_site_label
_atom_site_type_symbol
_atom_site_fract_x
_atom_site_fract_y
_atom_site_fract_z
_atom_site_occupancy
Cl1   Cl   0.002995813170926   0.174435567911090   0.766670841593346   1.0
Cl2   Cl   0.428723412909008   0.754652652796331   0.013113441818888   1.0
Cl3   Cl   0.974317627726677   0.581931835954713   0.214181082433498   1.0
H4   H   0.577011043054384   0.213089751392552   0.261340233166102   1.0
H5   H   0.238823702567828   0.394261243109170   0.651945709837314   1.0
H6   H   0.573804065630227   0.799042709921046   0.744338853813822   1.0
H7   H   0.812250321746980   0.666967002298620   0.479374993715432   1.0
H8   H   0.231794402133879   0.044419740705401   0.361177217694163   1.0
C9   C   0.543184134926207   0.625751044386270   0.626340288912594   1.0
C10   C   0.659710577387472   0.560587792083510   0.496427151441523   1.0
C11   C   0.354706304252531   0.232288799819038   0.428159731563731   1.0
Ge12   Ge   0.007034422666756   0.816269925887646   0.993309109701563   1.0
N13   N   0.355066979762952   0.419058900169738   0.580772257631828   1.0
N14   N   0.538507192064209   0.316523033564977   0.374809086676208   1.0




# HOIP entry ID:                    0202
# Khazana ID:                       2052
# Organic cation source:            B.Saparov et al., Chem. Rev. 116, 4558 (2016)
# Label:                            Imidazolium Germanium Chloride
# Material class:                   Hybrid organic-inorganic perovskite ( MC_ino )
# Geometry class:                   Bulk crystalline materials ( GC_cry )
# Organic cation chemical formula:  C3H5N2
# Number of atom types:             5
# Total number of atoms:            14
# Atom types:                       C H N  Ge Cl
# Number of each atom:              3 5 2  1 3
# Bandgap, HSE06 (eV):              4.5559
# Bandgap, GGA (eV):                3.5009
# Kpoint for VBM:                   0.5, 0.2273, 0.1
# Kpoint for CBM:                   0, 0, 0
# Dielectric constant, electronic:  3.3895
# Dielectric constant, ionic:       6.09
# Dielectric constant, total:       9.4795
# Refractive index:                 1.8411
# Atomization energy (eV/atom):     -5.0158
# Relative energy1 (eV/atom):       0.27
# Relative energy2 (eV/atom):       0.4766
# Volume of the unit cell (A^3):    195.37
# Density (g/cm^3):                 2.1084
# Tool:                             VASP
# Pseudopotential:                  PAW
# Note:                             ENCUT=400eV, k-spacing_relax=0.20/Angstrom, k-spacing_bandgap=0.15/Angstrom
# Created by:                       C.Kim, T.D.Huan, S.Krishnan, R. Ramprasad