data_1
_audit_creation_method   'Generated by vasp2cif'
_cell_length_a    5.96716203183
_cell_length_b    5.91187306763
_cell_length_c    6.30671022703
_cell_angle_alpha    80.8103262339
_cell_angle_beta    87.552550774
_cell_angle_gamma    94.6823558856

_symmetry_space_group_name_H-M    'P 1'
loop_
_atom_site_label
_atom_site_type_symbol
_atom_site_fract_x
_atom_site_fract_y
_atom_site_fract_z
_atom_site_occupancy
C1   C   0.466922534576952   0.585395605404997   0.337870378575531   1.0
C2   C   0.552943341897105   0.414441798372792   0.204843083362540   1.0
H3   H   0.734199744198534   0.448147878200366   0.166162656237560   1.0
H4   H   0.466724113100355   0.429077647003474   0.054867868640919   1.0
H5   H   0.568255183903261   0.408066432892333   0.633399227541609   1.0
H6   H   0.535274840734175   0.686900924233584   0.639499836998191   1.0
H7   H   0.517728716299729   0.237609405779708   0.289310017195703   1.0
H8   H   0.497732227271655   0.762788569204659   0.255647000718945   1.0
H9   H   0.288142144210511   0.549224541666590   0.385258140954562   1.0
H10   H   0.760999840778247   0.614546930850125   0.510993710952590   1.0
Br11   Br   0.495525314243388   0.011975251992659   0.819778042830649   1.0
Br12   Br   0.062171068413143   0.470714425519965   0.814695202647428   1.0
Br13   Br   0.017733255608341   0.992285646689197   0.314138997805429   1.0
N14   N   0.590612334436770   0.572374534269962   0.544623132934781   1.0
Ge15   Ge   0.039745340327890   0.025040407919605   0.899932702603522   1.0




# HOIP entry ID:                    0203
# Khazana ID:                       2053
# Organic cation source:            B.Saparov et al., Chem. Rev. 116, 4558 (2016)
# Label:                            Ethylammonium Germanium Bromide
# Material class:                   Hybrid organic-inorganic perovskite ( MC_ino )
# Geometry class:                   Bulk crystalline materials ( GC_cry )
# Organic cation chemical formula:  CH3CH2NH3
# Number of atom types:             5
# Total number of atoms:            15
# Atom types:                       C H N  Ge Br
# Number of each atom:              2 8 1  1 3
# Bandgap, HSE06 (eV):              2.839
# Bandgap, GGA (eV):                2.0754
# Kpoint for VBM:                   0.5, 0.5, 0.5
# Kpoint for CBM:                   0.5, 0.5, 0.5
# Dielectric constant, electronic:  3.8232
# Dielectric constant, ionic:       4.6642
# Dielectric constant, total:       8.4874
# Refractive index:                 1.9553
# Atomization energy (eV/atom):     -4.2749
# Relative energy1 (eV/atom):       0.1666
# Relative energy2 (eV/atom):       0.3339
# Volume of the unit cell (A^3):    218.54
# Density (g/cm^3):                 2.7143
# Tool:                             VASP
# Pseudopotential:                  PAW
# Note:                             ENCUT=400eV, k-spacing_relax=0.20/Angstrom, k-spacing_bandgap=0.15/Angstrom
# Created by:                       C.Kim, T.D.Huan, S.Krishnan, R. Ramprasad