data_1
_audit_creation_method   'Generated by vasp2cif'
_cell_length_a    6.21437969891
_cell_length_b    5.82235795188
_cell_length_c    6.18019469975
_cell_angle_alpha    84.2113254768
_cell_angle_beta    76.2518973671
_cell_angle_gamma    83.9302047216

_symmetry_space_group_name_H-M    'P 1'
loop_
_atom_site_label
_atom_site_type_symbol
_atom_site_fract_x
_atom_site_fract_y
_atom_site_fract_z
_atom_site_occupancy
C1   C   0.579055552621835   0.785402671273626   0.303802028024421   1.0
C2   C   0.505658620006345   0.597780929984304   0.189871394297369   1.0
H3   H   0.647570780463492   0.506340742793937   0.082811487306425   1.0
H4   H   0.394440546376743   0.677317244736430   0.085401667653696   1.0
H5   H   0.657129392307453   0.553828566981942   0.569100903806938   1.0
H6   H   0.778204005772032   0.802449736684035   0.537110929130481   1.0
H7   H   0.415677974324211   0.471219716244583   0.311643521254867   1.0
H8   H   0.672122316769771   0.911104609663172   0.185030352005108   1.0
H9   H   0.439400800999715   0.876872629159233   0.412589385183745   1.0
H10   H   0.875457185112761   0.595644057997478   0.360635048903622   1.0
Br11   Br   0.573471843565837   0.163032896140267   0.771147550102248   1.0
Br12   Br   0.093607621622477   0.661138505788975   0.795026967508666   1.0
Br13   Br   0.059401106847981   0.164469250658895   0.273593960432789   1.0
N14   N   0.732962896962282   0.678539853958228   0.452484698932881   1.0
Ge15   Ge   0.139309356247131   0.204658587935022   0.841470105456774   1.0




# HOIP entry ID:                    0204
# Khazana ID:                       2054
# Organic cation source:            B.Saparov et al., Chem. Rev. 116, 4558 (2016)
# Label:                            Ethylammonium Germanium Bromide
# Material class:                   Hybrid organic-inorganic perovskite ( MC_ino )
# Geometry class:                   Bulk crystalline materials ( GC_cry )
# Organic cation chemical formula:  CH3CH2NH3
# Number of atom types:             5
# Total number of atoms:            15
# Atom types:                       C H N  Ge Br
# Number of each atom:              2 8 1  1 3
# Bandgap, HSE06 (eV):              2.8997
# Bandgap, GGA (eV):                2.1127
# Kpoint for VBM:                   0.5, 0.5, 0.5
# Kpoint for CBM:                   0.5, 0.5, 0.5
# Dielectric constant, electronic:  3.8349
# Dielectric constant, ionic:       5.0412
# Dielectric constant, total:       8.8761
# Refractive index:                 1.9583
# Atomization energy (eV/atom):     -4.2779
# Relative energy1 (eV/atom):       0.1635
# Relative energy2 (eV/atom):       0.3309
# Volume of the unit cell (A^3):    215.32
# Density (g/cm^3):                 2.7549
# Tool:                             VASP
# Pseudopotential:                  PAW
# Note:                             ENCUT=400eV, k-spacing_relax=0.20/Angstrom, k-spacing_bandgap=0.15/Angstrom
# Created by:                       C.Kim, T.D.Huan, S.Krishnan, R. Ramprasad