data_1
_audit_creation_method   'Generated by vasp2cif'
_cell_length_a    6.23615871248
_cell_length_b    4.23082196922
_cell_length_c    8.52575341013
_cell_angle_alpha    93.627616997
_cell_angle_beta    92.9865680761
_cell_angle_gamma    102.315043478

_symmetry_space_group_name_H-M    'P 1'
loop_
_atom_site_label
_atom_site_type_symbol
_atom_site_fract_x
_atom_site_fract_y
_atom_site_fract_z
_atom_site_occupancy
C1   C   0.573474288748402   0.714903294305231   0.415154986351773   1.0
C2   C   0.556822502009799   0.510417006295904   0.556110952789717   1.0
H3   H   0.708823840890247   0.427089759351371   0.580252814392594   1.0
H4   H   0.530283477510511   0.657341164362147   0.660154323139212   1.0
H5   H   0.752820954194069   0.434359237957626   0.275449821006841   1.0
H6   H   0.610430979974732   0.650649333572753   0.169129394357035   1.0
H7   H   0.421976486337101   0.798691920308954   0.389661192211100   1.0
H8   H   0.417998309353440   0.301989602102478   0.538211084731375   1.0
H9   H   0.713725836749162   0.920582284564059   0.430955143442128   1.0
H10   H   0.476532910409552   0.320908659600731   0.243628975260061   1.0
Br11   Br   0.503529720318195   0.928435662740071   0.957122923824489   1.0
Br12   Br   0.064355575463671   0.179020002860572   0.219762486754900   1.0
Br13   Br   0.037264130704080   0.138946338210353   0.720295653000134   1.0
N14   N   0.607807394359471   0.516535080816369   0.267222808208206   1.0
Ge15   Ge   0.077693592977523   0.754840652951320   0.945057440530478   1.0




# HOIP entry ID:                    0205
# Khazana ID:                       2055
# Organic cation source:            B.Saparov et al., Chem. Rev. 116, 4558 (2016)
# Label:                            Ethylammonium Germanium Bromide
# Material class:                   Hybrid organic-inorganic perovskite ( MC_ino )
# Geometry class:                   Bulk crystalline materials ( GC_cry )
# Organic cation chemical formula:  CH3CH2NH3
# Number of atom types:             5
# Total number of atoms:            15
# Atom types:                       C H N  Ge Br
# Number of each atom:              2 8 1  1 3
# Bandgap, HSE06 (eV):              3.9521
# Bandgap, GGA (eV):                2.99
# Kpoint for VBM:                   0, 0.2, 0.5
# Kpoint for CBM:                   0.1667, 0, 0.5
# Dielectric constant, electronic:  3.545
# Dielectric constant, ionic:       4.2848
# Dielectric constant, total:       7.8298
# Refractive index:                 1.8828
# Atomization energy (eV/atom):     -4.2641
# Relative energy1 (eV/atom):       0.1774
# Relative energy2 (eV/atom):       0.3447
# Volume of the unit cell (A^3):    218.83
# Density (g/cm^3):                 2.7107
# Tool:                             VASP
# Pseudopotential:                  PAW
# Note:                             ENCUT=400eV, k-spacing_relax=0.20/Angstrom, k-spacing_bandgap=0.15/Angstrom
# Created by:                       C.Kim, T.D.Huan, S.Krishnan, R. Ramprasad