data_1
_audit_creation_method   'Generated by vasp2cif'
_cell_length_a    8.4447364623
_cell_length_b    4.26770360438
_cell_length_c    6.13908160359
_cell_angle_alpha    80.547921495
_cell_angle_beta    93.0702238016
_cell_angle_gamma    87.6326281542

_symmetry_space_group_name_H-M    'P 1'
loop_
_atom_site_label
_atom_site_type_symbol
_atom_site_fract_x
_atom_site_fract_y
_atom_site_fract_z
_atom_site_occupancy
C1   C   0.467422022069428   0.547407155892714   0.412755475139605   1.0
C2   C   0.408606993993366   0.689575652507841   0.607820032013755   1.0
H3   H   0.386491409598541   0.503693044654462   0.746333097160630   1.0
H4   H   0.494788992173575   0.844225827566788   0.668992476126540   1.0
H5   H   0.640882256217118   0.239256974705938   0.618923051908183   1.0
H6   H   0.718220209077501   0.556857268876655   0.484748483468607   1.0
H7   H   0.390836928306818   0.364028834301841   0.369352258013066   1.0
H8   H   0.297268469650817   0.827847259017346   0.557056686225337   1.0
H9   H   0.476519482411213   0.724993699622729   0.265040951279310   1.0
H10   H   0.668079655826006   0.268756173011546   0.345037528021102   1.0
Br11   Br   0.958109203256136   0.794923142863183   0.567248950463302   1.0
Br12   Br   0.708056278810162   0.093050720991243   0.010891469891178   1.0
Br13   Br   0.201945217142928   0.087860224336005   0.029172610498527   1.0
N14   N   0.633193972055494   0.391470979634143   0.468548949276254   1.0
Ge15   Ge   0.977488909410908   0.674823042017572   0.996927980514592   1.0




# HOIP entry ID:                    0206
# Khazana ID:                       2056
# Organic cation source:            B.Saparov et al., Chem. Rev. 116, 4558 (2016)
# Label:                            Ethylammonium Germanium Bromide
# Material class:                   Hybrid organic-inorganic perovskite ( MC_ino )
# Geometry class:                   Bulk crystalline materials ( GC_cry )
# Organic cation chemical formula:  CH3CH2NH3
# Number of atom types:             5
# Total number of atoms:            15
# Atom types:                       C H N  Ge Br
# Number of each atom:              2 8 1  1 3
# Bandgap, HSE06 (eV):              3.9704
# Bandgap, GGA (eV):                3.0076
# Kpoint for VBM:                   0.5, 0.1667, 0.2143
# Kpoint for CBM:                   0.375, 0, 0.4286
# Dielectric constant, electronic:  3.6057
# Dielectric constant, ionic:       4.771
# Dielectric constant, total:       8.3767
# Refractive index:                 1.8989
# Atomization energy (eV/atom):     -4.2665
# Relative energy1 (eV/atom):       0.1749
# Relative energy2 (eV/atom):       0.3423
# Volume of the unit cell (A^3):    217.65
# Density (g/cm^3):                 2.7254
# Tool:                             VASP
# Pseudopotential:                  PAW
# Note:                             ENCUT=400eV, k-spacing_relax=0.20/Angstrom, k-spacing_bandgap=0.15/Angstrom
# Created by:                       C.Kim, T.D.Huan, S.Krishnan, R. Ramprasad