data_1
_audit_creation_method   'Generated by vasp2cif'
_cell_length_a    6.20699232939
_cell_length_b    4.29349767201
_cell_length_c    8.27876403442
_cell_angle_alpha    95.1184677891
_cell_angle_beta    97.6805973834
_cell_angle_gamma    94.2855257548

_symmetry_space_group_name_H-M    'P 1'
loop_
_atom_site_label
_atom_site_type_symbol
_atom_site_fract_x
_atom_site_fract_y
_atom_site_fract_z
_atom_site_occupancy
C1   C   0.408765001431462   0.834192532633026   0.612723509015431   1.0
C2   C   0.572273234749574   0.624876274977851   0.548635176242172   1.0
H3   H   0.491831768107183   0.440543538098076   0.455834057144159   1.0
H4   H   0.686912049065427   0.768324433524036   0.490927877093590   1.0
H5   H   0.161060843836978   0.470974897997571   0.622565509661996   1.0
H6   H   0.140501639332804   0.792745993358380   0.747205827022078   1.0
H7   H   0.489706354954414   0.022839463195723   0.702337198975769   1.0
H8   H   0.665127655289005   0.518726132209522   0.648085884382603   1.0
H9   H   0.309716777498075   0.931650175104622   0.513643157673300   1.0
H10   H   0.331991940373790   0.558572133519760   0.801857238218588   1.0
Br11   Br   0.493543803101439   0.587429940445197   0.091126356802583   1.0
Br12   Br   0.920613334349746   0.139979174796586   0.868533548464804   1.0
Br13   Br   0.967687689337062   0.220030690622849   0.360459626599237   1.0
N14   N   0.250438824545014   0.649395580406008   0.701299461459556   1.0
Ge15   Ge   0.912429084028084   0.631249039110756   0.119285571244063   1.0




# HOIP entry ID:                    0207
# Khazana ID:                       2057
# Organic cation source:            B.Saparov et al., Chem. Rev. 116, 4558 (2016)
# Label:                            Ethylammonium Germanium Bromide
# Material class:                   Hybrid organic-inorganic perovskite ( MC_ino )
# Geometry class:                   Bulk crystalline materials ( GC_cry )
# Organic cation chemical formula:  CH3CH2NH3
# Number of atom types:             5
# Total number of atoms:            15
# Atom types:                       C H N  Ge Br
# Number of each atom:              2 8 1  1 3
# Bandgap, HSE06 (eV):              3.6942
# Bandgap, GGA (eV):                2.7888
# Kpoint for VBM:                   0.4167, -0.2222, 0.4
# Kpoint for CBM:                   -0.4167, 0, 0.4
# Dielectric constant, electronic:  3.7203
# Dielectric constant, ionic:       17.743
# Dielectric constant, total:       21.4633
# Refractive index:                 1.9288
# Atomization energy (eV/atom):     -4.2652
# Relative energy1 (eV/atom):       0.1762
# Relative energy2 (eV/atom):       0.3436
# Volume of the unit cell (A^3):    216.93
# Density (g/cm^3):                 2.7344
# Tool:                             VASP
# Pseudopotential:                  PAW
# Note:                             ENCUT=400eV, k-spacing_relax=0.20/Angstrom, k-spacing_bandgap=0.15/Angstrom
# Created by:                       C.Kim, T.D.Huan, S.Krishnan, R. Ramprasad