data_1
_audit_creation_method   'Generated by vasp2cif'
_cell_length_a    6.76368142366
_cell_length_b    4.59454273072
_cell_length_c    7.42740102923
_cell_angle_alpha    103.590556792
_cell_angle_beta    92.3872336767
_cell_angle_gamma    84.0588434338

_symmetry_space_group_name_H-M    'P 1'
loop_
_atom_site_label
_atom_site_type_symbol
_atom_site_fract_x
_atom_site_fract_y
_atom_site_fract_z
_atom_site_occupancy
C1   C   0.574597514347580   0.452049582792263   0.490752096034008   1.0
C2   C   0.692683081001540   0.722394235127823   0.557701879342140   1.0
H3   H   0.822544507618417   0.651308831162218   0.634522826030285   1.0
H4   H   0.746617905141555   0.799677078473955   0.442040306087115   1.0
H5   H   0.438935759112276   0.589110114870508   0.255624930511871   1.0
H6   H   0.303615029002238   0.707347048368995   0.447209819153962   1.0
H7   H   0.663394829454241   0.264610642802090   0.403101843140682   1.0
H8   H   0.605885535545283   0.907099313967095   0.650174086412832   1.0
H9   H   0.515942486460453   0.379765078133509   0.605999962477142   1.0
H10   H   0.311406882549882   0.350152347959124   0.328827099563895   1.0
Br11   Br   0.462093955150635   0.873200239530739   0.020813792221951   1.0
Br12   Br   0.958142111327177   0.388116184309943   0.139290428388293   1.0
Br13   Br   0.130363084564003   0.149813214293218   0.626009873217072   1.0
N14   N   0.396050920247738   0.528031340093122   0.373109371809271   1.0
Ge15   Ge   0.090136398476936   0.889404748115453   0.912241685609487   1.0




# HOIP entry ID:                    0208
# Khazana ID:                       2058
# Organic cation source:            B.Saparov et al., Chem. Rev. 116, 4558 (2016)
# Label:                            Ethylammonium Germanium Bromide
# Material class:                   Hybrid organic-inorganic perovskite ( MC_ino )
# Geometry class:                   Bulk crystalline materials ( GC_cry )
# Organic cation chemical formula:  CH3CH2NH3
# Number of atom types:             5
# Total number of atoms:            15
# Atom types:                       C H N  Ge Br
# Number of each atom:              2 8 1  1 3
# Bandgap, HSE06 (eV):              3.9381
# Bandgap, GGA (eV):                3.007
# Kpoint for VBM:                   0, -0.3889, 0.1667
# Kpoint for CBM:                   0.25, 0, 0.4167
# Dielectric constant, electronic:  3.3836
# Dielectric constant, ionic:       2.5894
# Dielectric constant, total:       5.9731
# Refractive index:                 1.8395
# Atomization energy (eV/atom):     -4.2674
# Relative energy1 (eV/atom):       0.1741
# Relative energy2 (eV/atom):       0.3414
# Volume of the unit cell (A^3):    223.11
# Density (g/cm^3):                 2.6587
# Tool:                             VASP
# Pseudopotential:                  PAW
# Note:                             ENCUT=400eV, k-spacing_relax=0.20/Angstrom, k-spacing_bandgap=0.15/Angstrom
# Created by:                       C.Kim, T.D.Huan, S.Krishnan, R. Ramprasad