data_1
_audit_creation_method   'Generated by vasp2cif'
_cell_length_a    5.65143549733
_cell_length_b    4.06909407704
_cell_length_c    9.44640291413
_cell_angle_alpha    90.4231790069
_cell_angle_beta    83.7060102816
_cell_angle_gamma    90.2800698031

_symmetry_space_group_name_H-M    'P 1'
loop_
_atom_site_label
_atom_site_type_symbol
_atom_site_fract_x
_atom_site_fract_y
_atom_site_fract_z
_atom_site_occupancy
C1   C   0.457347583234693   0.102365954033353   0.472799332429851   1.0
C2   C   0.663028024858690   0.112247558986532   0.564405120066930   1.0
H3   H   0.787719026872487   0.910573426963531   0.537302710430353   1.0
H4   H   0.761859364190954   0.344130992364896   0.551974862431599   1.0
H5   H   0.414258455810042   0.121885322618020   0.250985816698915   1.0
H6   H   0.662779308516917   0.927104128895834   0.284272328084981   1.0
H7   H   0.353236599681992   0.875825429632968   0.485984706333532   1.0
H8   H   0.593734344002442   0.088861440155370   0.676290284241041   1.0
H9   H   0.334929474955082   0.307878055550049   0.494823693371124   1.0
H10   H   0.655506729594563   0.327049231307306   0.292625136036044   1.0
Br11   Br   0.548908752046501   0.142760588476115   0.970708452312600   1.0
Br12   Br   0.041162943976168   0.624584271712770   0.231326096001851   1.0
Br13   Br   0.107804406696253   0.623322303856838   0.761145249922890   1.0
N14   N   0.549769698298036   0.121098836017879   0.315615683562456   1.0
Ge15   Ge   0.098245287265236   0.132462459428595   0.964610528075831   1.0




# HOIP entry ID:                    0209
# Khazana ID:                       2059
# Organic cation source:            B.Saparov et al., Chem. Rev. 116, 4558 (2016)
# Label:                            Ethylammonium Germanium Bromide
# Material class:                   Hybrid organic-inorganic perovskite ( MC_ino )
# Geometry class:                   Bulk crystalline materials ( GC_cry )
# Organic cation chemical formula:  CH3CH2NH3
# Number of atom types:             5
# Total number of atoms:            15
# Atom types:                       C H N  Ge Br
# Number of each atom:              2 8 1  1 3
# Bandgap, HSE06 (eV):              3.3028
# Bandgap, GGA (eV):                2.5043
# Kpoint for VBM:                   0.5, 0.2, 0.5
# Kpoint for CBM:                   0.5, 0, 0.5
# Dielectric constant, electronic:  3.8912
# Dielectric constant, ionic:       11.7627
# Dielectric constant, total:       15.6539
# Refractive index:                 1.9726
# Atomization energy (eV/atom):     -4.2579
# Relative energy1 (eV/atom):       0.1835
# Relative energy2 (eV/atom):       0.3509
# Volume of the unit cell (A^3):    215.91
# Density (g/cm^3):                 2.7474
# Tool:                             VASP
# Pseudopotential:                  PAW
# Note:                             ENCUT=400eV, k-spacing_relax=0.20/Angstrom, k-spacing_bandgap=0.15/Angstrom
# Created by:                       C.Kim, T.D.Huan, S.Krishnan, R. Ramprasad