data_1
_audit_creation_method   'Generated by vasp2cif'
_cell_length_a    5.89035764092
_cell_length_b    4.69454356988
_cell_length_c    8.01488458003
_cell_angle_alpha    86.1122410222
_cell_angle_beta    85.6476778458
_cell_angle_gamma    76.8466912108

_symmetry_space_group_name_H-M    'P 1'
loop_
_atom_site_label
_atom_site_type_symbol
_atom_site_fract_x
_atom_site_fract_y
_atom_site_fract_z
_atom_site_occupancy
C1   C   0.470613299318010   0.537012089726652   0.530642063032005   1.0
C2   C   0.645078104164980   0.730700040129499   0.494916021211040   1.0
H3   H   0.809960837900853   0.608342001686140   0.438766377443820   1.0
H4   H   0.577408697398496   0.913324253700729   0.407345750459768   1.0
H5   H   0.532092052760888   0.366266028677572   0.287562460684121   1.0
H6   H   0.306401806226063   0.651565880999371   0.301243221477755   1.0
H7   H   0.545098543992822   0.331159708932773   0.597530182928637   1.0
H8   H   0.678830463342081   0.816688412758282   0.611369644590980   1.0
H9   H   0.313093310907526   0.647345667883087   0.600558144737178   1.0
H10   H   0.275508723007810   0.325471859856286   0.381265375652134   1.0
Br11   Br   0.569649313314699   0.705559596463218   0.972826557955273   1.0
Br12   Br   0.001371761166808   0.106705892596608   0.223386179879888   1.0
Br13   Br   0.034652846609596   0.148402774068053   0.718441503672700   1.0
N14   N   0.391251343838910   0.462561460650434   0.365158665350400   1.0
Ge15   Ge   0.011928896050442   0.509414331871326   0.956627850924257   1.0




# HOIP entry ID:                    0210
# Khazana ID:                       2060
# Organic cation source:            B.Saparov et al., Chem. Rev. 116, 4558 (2016)
# Label:                            Ethylammonium Germanium Bromide
# Material class:                   Hybrid organic-inorganic perovskite ( MC_ino )
# Geometry class:                   Bulk crystalline materials ( GC_cry )
# Organic cation chemical formula:  CH3CH2NH3
# Number of atom types:             5
# Total number of atoms:            15
# Atom types:                       C H N  Ge Br
# Number of each atom:              2 8 1  1 3
# Bandgap, HSE06 (eV):              3.672
# Bandgap, GGA (eV):                2.779
# Kpoint for VBM:                   0.5, 0.5, 0.5
# Kpoint for CBM:                   0.4286, 0, 0.4
# Dielectric constant, electronic:  3.5742
# Dielectric constant, ionic:       5.6465
# Dielectric constant, total:       9.2207
# Refractive index:                 1.8905
# Atomization energy (eV/atom):     -4.2616
# Relative energy1 (eV/atom):       0.1798
# Relative energy2 (eV/atom):       0.3472
# Volume of the unit cell (A^3):    214.9
# Density (g/cm^3):                 2.7603
# Tool:                             VASP
# Pseudopotential:                  PAW
# Note:                             ENCUT=400eV, k-spacing_relax=0.20/Angstrom, k-spacing_bandgap=0.15/Angstrom
# Created by:                       C.Kim, T.D.Huan, S.Krishnan, R. Ramprasad