data_1
_audit_creation_method   'Generated by vasp2cif'
_cell_length_a    8.15559183553
_cell_length_b    4.30439860215
_cell_length_c    6.40554399954
_cell_angle_alpha    74.4641913346
_cell_angle_beta    90.5564811298
_cell_angle_gamma    91.3300121536

_symmetry_space_group_name_H-M    'P 1'
loop_
_atom_site_label
_atom_site_type_symbol
_atom_site_fract_x
_atom_site_fract_y
_atom_site_fract_z
_atom_site_occupancy
C1   C   0.377683825193948   0.801883519641729   0.411196774041464   1.0
C2   C   0.516063723161603   0.563803534220405   0.438471523662089   1.0
H3   H   0.515162496344374   0.442635976393384   0.308711272323284   1.0
H4   H   0.633384560972664   0.693438833446356   0.430700916426387   1.0
H5   H   0.193848903297952   0.535064784564785   0.291759857762354   1.0
H6   H   0.115301437672344   0.780480433581639   0.420138493337197   1.0
H7   H   0.378024792694606   0.920355190763128   0.541560078010087   1.0
H8   H   0.508143013805574   0.384652497658945   0.595479433392834   1.0
H9   H   0.380686388385732   0.980240832641715   0.253604063748455   1.0
H10   H   0.202193376922795   0.438633798043876   0.563513879402458   1.0
Br11   Br   0.896781622254251   0.169618650207039   0.332169546948480   1.0
Br12   Br   0.153512282623179   0.941134456920669   0.877929463271327   1.0
Br13   Br   0.647139646636214   0.872653083618622   0.901698520357487   1.0
N14   N   0.212118659810989   0.626475780552108   0.423429284325493   1.0
Ge15   Ge   0.878135270223678   0.306268627745630   0.912186892990614   1.0




# HOIP entry ID:                    0211
# Khazana ID:                       2061
# Organic cation source:            B.Saparov et al., Chem. Rev. 116, 4558 (2016)
# Label:                            Ethylammonium Germanium Bromide
# Material class:                   Hybrid organic-inorganic perovskite ( MC_ino )
# Geometry class:                   Bulk crystalline materials ( GC_cry )
# Organic cation chemical formula:  CH3CH2NH3
# Number of atom types:             5
# Total number of atoms:            15
# Atom types:                       C H N  Ge Br
# Number of each atom:              2 8 1  1 3
# Bandgap, HSE06 (eV):              3.8927
# Bandgap, GGA (eV):                2.9402
# Kpoint for VBM:                   -0.4, 0.2222, 0.1429
# Kpoint for CBM:                   0.4, 0, 0.4286
# Dielectric constant, electronic:  3.5623
# Dielectric constant, ionic:       4.0099
# Dielectric constant, total:       7.5722
# Refractive index:                 1.8874
# Atomization energy (eV/atom):     -4.2636
# Relative energy1 (eV/atom):       0.1778
# Relative energy2 (eV/atom):       0.3452
# Volume of the unit cell (A^3):    216.59
# Density (g/cm^3):                 2.7387
# Tool:                             VASP
# Pseudopotential:                  PAW
# Note:                             ENCUT=400eV, k-spacing_relax=0.20/Angstrom, k-spacing_bandgap=0.15/Angstrom
# Created by:                       C.Kim, T.D.Huan, S.Krishnan, R. Ramprasad