data_1
_audit_creation_method   'Generated by vasp2cif'
_cell_length_a    10.7950525524
_cell_length_b    4.74540263072
_cell_length_c    4.32157385219
_cell_angle_alpha    90.1168131996
_cell_angle_beta    89.8988217501
_cell_angle_gamma    83.5988197693

_symmetry_space_group_name_H-M    'P 1'
loop_
_atom_site_label
_atom_site_type_symbol
_atom_site_fract_x
_atom_site_fract_y
_atom_site_fract_z
_atom_site_occupancy
C1   C   0.595394171619809   0.707916717320025   0.548397022714887   1.0
C2   C   0.512968754007417   0.469129876215916   0.518697612989023   1.0
H3   H   0.525759640063541   0.323742656532325   0.714908291182560   1.0
H4   H   0.415249231075371   0.558005503338059   0.514220506562509   1.0
H5   H   0.751688724007934   0.451771003191958   0.737614114278635   1.0
H6   H   0.787504143571432   0.755424702726572   0.581444928649454   1.0
H7   H   0.584107663927547   0.854718935220212   0.354097995913442   1.0
H8   H   0.532866428193429   0.349243364881573   0.304501005739894   1.0
H9   H   0.577016114016928   0.828880669127024   0.761637147260316   1.0
H10   H   0.759152221179960   0.479377800277348   0.357454367928355   1.0
Br11   Br   0.079675248014993   0.524633931068244   0.540532427751607   1.0
Br12   Br   0.812923595747598   0.071802181332103   0.053459113058402   1.0
Br13   Br   0.331297219159587   0.009575385025755   0.035028512858936   1.0
N14   N   0.732234977251132   0.593322675105469   0.555945998679263   1.0
Ge15   Ge   0.101831868163373   0.131104598637343   0.037360954432771   1.0




# HOIP entry ID:                    0212
# Khazana ID:                       2062
# Organic cation source:            B.Saparov et al., Chem. Rev. 116, 4558 (2016)
# Label:                            Ethylammonium Germanium Bromide
# Material class:                   Hybrid organic-inorganic perovskite ( MC_ino )
# Geometry class:                   Bulk crystalline materials ( GC_cry )
# Organic cation chemical formula:  CH3CH2NH3
# Number of atom types:             5
# Total number of atoms:            15
# Atom types:                       C H N  Ge Br
# Number of each atom:              2 8 1  1 3
# Bandgap, HSE06 (eV):              2.7138
# Bandgap, GGA (eV):                1.8833
# Kpoint for VBM:                   0.5, 0.5, 0.1053
# Kpoint for CBM:                   0, 0.5, 0
# Dielectric constant, electronic:  3.7188
# Dielectric constant, ionic:       6.3483
# Dielectric constant, total:       10.0671
# Refractive index:                 1.9284
# Atomization energy (eV/atom):     -4.2518
# Relative energy1 (eV/atom):       0.1896
# Relative energy2 (eV/atom):       0.357
# Volume of the unit cell (A^3):    220
# Density (g/cm^3):                 2.6963
# Tool:                             VASP
# Pseudopotential:                  PAW
# Note:                             ENCUT=400eV, k-spacing_relax=0.20/Angstrom, k-spacing_bandgap=0.15/Angstrom
# Created by:                       C.Kim, T.D.Huan, S.Krishnan, R. Ramprasad