data_1
_audit_creation_method   'Generated by vasp2cif'
_cell_length_a    8.19251969379
_cell_length_b    4.54621298053
_cell_length_c    6.23448825368
_cell_angle_alpha    95.0973503055
_cell_angle_beta    101.080009569
_cell_angle_gamma    97.1429120926

_symmetry_space_group_name_H-M    'P 1'
loop_
_atom_site_label
_atom_site_type_symbol
_atom_site_fract_x
_atom_site_fract_y
_atom_site_fract_z
_atom_site_occupancy
C1   C   0.607009431839721   0.661052544295153   0.527698832309028   1.0
C2   C   0.467001593852601   0.587122536419443   0.651715075597423   1.0
H3   H   0.366807736143073   0.419771543673562   0.553202853493026   1.0
H4   H   0.516276346080204   0.507314047241287   0.808687394905512   1.0
H5   H   0.733136191323077   0.301636975441333   0.619871717668893   1.0
H6   H   0.787891068981374   0.440658956106098   0.399189312564289   1.0
H7   H   0.560239451138891   0.737154592004153   0.369097659836811   1.0
H8   H   0.413102838667953   0.789722819049992   0.686958721436937   1.0
H9   H   0.708352370423910   0.823697862421049   0.626163930971771   1.0
H10   H   0.600404203946347   0.231701452972864   0.368873771817931   1.0
Br11   Br   0.045786901342027   0.922087515306053   0.545731462617830   1.0
Br12   Br   0.839169960273281   0.243706137063697   0.008310766927039   1.0
Br13   Br   0.329897611441005   0.035507738821671   0.124477053115697   1.0
N14   N   0.688277709586615   0.388439985120598   0.475300985171913   1.0
Ge15   Ge   0.127336584959920   0.343555294063137   0.879040461565907   1.0




# HOIP entry ID:                    0213
# Khazana ID:                       2063
# Organic cation source:            B.Saparov et al., Chem. Rev. 116, 4558 (2016)
# Label:                            Ethylammonium Germanium Bromide
# Material class:                   Hybrid organic-inorganic perovskite ( MC_ino )
# Geometry class:                   Bulk crystalline materials ( GC_cry )
# Organic cation chemical formula:  CH3CH2NH3
# Number of atom types:             5
# Total number of atoms:            15
# Atom types:                       C H N  Ge Br
# Number of each atom:              2 8 1  1 3
# Bandgap, HSE06 (eV):              3.9944
# Bandgap, GGA (eV):                3.0571
# Kpoint for VBM:                   0.1, 0.5, 0.5
# Kpoint for CBM:                   0, 0, 0.4167
# Dielectric constant, electronic:  3.3676
# Dielectric constant, ionic:       3.0116
# Dielectric constant, total:       6.3792
# Refractive index:                 1.8351
# Atomization energy (eV/atom):     -4.2511
# Relative energy1 (eV/atom):       0.1903
# Relative energy2 (eV/atom):       0.3577
# Volume of the unit cell (A^3):    224.59
# Density (g/cm^3):                 2.6412
# Tool:                             VASP
# Pseudopotential:                  PAW
# Note:                             ENCUT=400eV, k-spacing_relax=0.20/Angstrom, k-spacing_bandgap=0.15/Angstrom
# Created by:                       C.Kim, T.D.Huan, S.Krishnan, R. Ramprasad