data_1
_audit_creation_method   'Generated by vasp2cif'
_cell_length_a    6.19499225332
_cell_length_b    5.94408933866
_cell_length_c    7.05022455763
_cell_angle_alpha    73.2060995953
_cell_angle_beta    88.1303838537
_cell_angle_gamma    83.377373962

_symmetry_space_group_name_H-M    'P 1'
loop_
_atom_site_label
_atom_site_type_symbol
_atom_site_fract_x
_atom_site_fract_y
_atom_site_fract_z
_atom_site_occupancy
C1   C   0.691882590075069   0.662657011805974   0.395420317443081   1.0
C2   C   0.597892435396784   0.452289242898975   0.358687525398426   1.0
C3   C   0.611658842007451   0.462856156479034   0.139381999407002   1.0
H4   H   0.778830024647860   0.474326479456636   0.085293397040470   1.0
H5   H   0.556098452188321   0.304700689146667   0.117779206617427   1.0
H6   H   0.428217748396834   0.449171541457740   0.408337108625157   1.0
H7   H   0.689388954859612   0.288500547609673   0.446818392116363   1.0
H8   H   0.496881761978742   0.658566600053343   0.648689139316186   1.0
H9   H   0.719623585301294   0.798280218048059   0.644043339282918   1.0
H10   H   0.508640442134339   0.616259839701684   0.049750405556587   1.0
H11   H   0.866381035909729   0.658796925977372   0.366995757355497   1.0
H12   H   0.610720832404124   0.831670695433555   0.307409336673653   1.0
H13   H   0.739416480464881   0.504856264114637   0.702649044190330   1.0
Br14   Br   0.770727342991851   0.044672901753117   0.864930975005812   1.0
Br15   Br   0.165195480648238   0.502319102493129   0.785507398283941   1.0
Br16   Br   0.147133807047221   0.054093839081331   0.309485232605316   1.0
N17   N   0.659909258582172   0.658312408167712   0.611276795821536   1.0
Ge18   Ge   0.182480924965484   0.047759536321381   0.946414629260392   1.0




# HOIP entry ID:                    0214
# Khazana ID:                       2064
# Organic cation source:            S.Kataoka et al., J. Am. Chem. Soc. 137, 4158 (2015)
# Label:                            Propylammonium Germanium Bromide
# Material class:                   Hybrid organic-inorganic perovskite ( MC_ino )
# Geometry class:                   Bulk crystalline materials ( GC_cry )
# Organic cation chemical formula:  CH3CH2CH2NH3
# Number of atom types:             5
# Total number of atoms:            18
# Atom types:                       C H N  Ge Br
# Number of each atom:              3 10 1  1 3
# Bandgap, HSE06 (eV):              3.5853
# Bandgap, GGA (eV):                2.6795
# Kpoint for VBM:                   0.5, 0.5, 0
# Kpoint for CBM:                   0.5, 0.5, 0.5
# Dielectric constant, electronic:  3.295
# Dielectric constant, ionic:       2.0945
# Dielectric constant, total:       5.3895
# Refractive index:                 1.8152
# Atomization energy (eV/atom):     -4.4015
# Relative energy1 (eV/atom):       0.0914
# Relative energy2 (eV/atom):       0.2309
# Volume of the unit cell (A^3):    246.88
# Density (g/cm^3):                 2.4971
# Tool:                             VASP
# Pseudopotential:                  PAW
# Note:                             ENCUT=400eV, k-spacing_relax=0.20/Angstrom, k-spacing_bandgap=0.15/Angstrom
# Created by:                       C.Kim, T.D.Huan, S.Krishnan, R. Ramprasad