data_1
_audit_creation_method   'Generated by vasp2cif'
_cell_length_a    6.08664315274
_cell_length_b    6.07871217344
_cell_length_c    7.12760947591
_cell_angle_alpha    107.609874615
_cell_angle_beta    83.1267444483
_cell_angle_gamma    91.1618506279

_symmetry_space_group_name_H-M    'P 1'
loop_
_atom_site_label
_atom_site_type_symbol
_atom_site_fract_x
_atom_site_fract_y
_atom_site_fract_z
_atom_site_occupancy
C1   C   0.416282435633321   0.690008619077773   0.622210707057020   1.0
C2   C   0.286889577956433   0.514639528430422   0.704163019754928   1.0
C3   C   0.404193367640436   0.465921731397712   0.866253350275030   1.0
H4   H   0.403325360257072   0.619620325795943   0.994813707108366   1.0
H5   H   0.322781791859355   0.327366811838996   0.914159108026856   1.0
H6   H   0.275847846738601   0.353578803321496   0.584112800695950   1.0
H7   H   0.116937749325942   0.577594767585548   0.761210928147685   1.0
H8   H   0.362020592109783   0.536795009296362   0.324692704272456   1.0
H9   H   0.410775875490112   0.819057046709489   0.374253653812688   1.0
H10   H   0.576682889234542   0.412813718763766   0.811647522401230   1.0
H11   H   0.398932699884833   0.865190894726776   0.724164923006186   1.0
H12   H   0.592012788888171   0.644696096735394   0.584719999125357   1.0
H13   H   0.165497084183437   0.730297329905245   0.451850225739156   1.0
Br14   Br   0.446228004516585   0.101846923034853   0.189496344544544   1.0
Br15   Br   0.873647507756333   0.581865876438146   0.192384294544441   1.0
Br16   Br   0.902444447625215   0.043484367331595   0.728878354069377   1.0
N17   N   0.333512127411256   0.695557421465742   0.430905414814770   1.0
Ge18   Ge   0.882387853488679   0.131554728144708   0.105832942603995   1.0




# HOIP entry ID:                    0215
# Khazana ID:                       2065
# Organic cation source:            S.Kataoka et al., J. Am. Chem. Soc. 137, 4158 (2015)
# Label:                            Propylammonium Germanium Bromide
# Material class:                   Hybrid organic-inorganic perovskite ( MC_ino )
# Geometry class:                   Bulk crystalline materials ( GC_cry )
# Organic cation chemical formula:  CH3CH2CH2NH3
# Number of atom types:             5
# Total number of atoms:            18
# Atom types:                       C H N  Ge Br
# Number of each atom:              3 10 1  1 3
# Bandgap, HSE06 (eV):              3.3202
# Bandgap, GGA (eV):                2.4381
# Kpoint for VBM:                   0.5, 0.5, 0
# Kpoint for CBM:                   0.5, 0.5, 0.5
# Dielectric constant, electronic:  3.3463
# Dielectric constant, ionic:       2.5656
# Dielectric constant, total:       5.9119
# Refractive index:                 1.8293
# Atomization energy (eV/atom):     -4.404
# Relative energy1 (eV/atom):       0.089
# Relative energy2 (eV/atom):       0.2284
# Volume of the unit cell (A^3):    249.51
# Density (g/cm^3):                 2.4707
# Tool:                             VASP
# Pseudopotential:                  PAW
# Note:                             ENCUT=400eV, k-spacing_relax=0.20/Angstrom, k-spacing_bandgap=0.15/Angstrom
# Created by:                       C.Kim, T.D.Huan, S.Krishnan, R. Ramprasad