data_1
_audit_creation_method   'Generated by vasp2cif'
_cell_length_a    6.29775342885
_cell_length_b    6.01449333267
_cell_length_c    6.43371331358
_cell_angle_alpha    97.6659275588
_cell_angle_beta    80.7228872687
_cell_angle_gamma    97.3093874491

_symmetry_space_group_name_H-M    'P 1'
loop_
_atom_site_label
_atom_site_type_symbol
_atom_site_fract_x
_atom_site_fract_y
_atom_site_fract_z
_atom_site_occupancy
C1   C   0.506214215444899   0.580272353258586   0.614296027267123   1.0
C2   C   0.508009403704584   0.431066551491639   0.788073971233437   1.0
C3   C   0.611327052145150   0.212694107590465   0.706366024035646   1.0
H4   H   0.778738064092707   0.249835559509698   0.631881091978734   1.0
H5   H   0.612231307200453   0.114828770402426   0.836738382968605   1.0
H6   H   0.342176617408768   0.394836807119844   0.869167483087750   1.0
H7   H   0.599736773327230   0.530872027450492   0.905872735780775   1.0
H8   H   0.382388602033906   0.317336164056719   0.389019879478944   1.0
H9   H   0.342388552218509   0.578690264746918   0.350136900798745   1.0
H10   H   0.522930161679511   0.106142024104244   0.589680051329388   1.0
H11   H   0.453805426486738   0.744382325705701   0.678319172833085   1.0
H12   H   0.663479844705883   0.602271165805448   0.515544682205487   1.0
H13   H   0.191361110952556   0.455847037647857   0.546205538813552   1.0
Br14   Br   0.364916506608282   0.932358279083552   0.187686983441019   1.0
Br15   Br   0.934023887783304   0.355401544726973   0.167117497787800   1.0
Br16   Br   0.018024468935856   0.858299910416363   0.734244063616465   1.0
N17   N   0.346147952164379   0.473959194291417   0.464728696595152   1.0
Ge18   Ge   0.950700053107347   0.920035912591629   0.137590816748258   1.0




# HOIP entry ID:                    0217
# Khazana ID:                       2067
# Organic cation source:            S.Kataoka et al., J. Am. Chem. Soc. 137, 4158 (2015)
# Label:                            Propylammonium Germanium Bromide
# Material class:                   Hybrid organic-inorganic perovskite ( MC_ino )
# Geometry class:                   Bulk crystalline materials ( GC_cry )
# Organic cation chemical formula:  CH3CH2CH2NH3
# Number of atom types:             5
# Total number of atoms:            18
# Atom types:                       C H N  Ge Br
# Number of each atom:              3 10 1  1 3
# Bandgap, HSE06 (eV):              3.3391
# Bandgap, GGA (eV):                2.4324
# Kpoint for VBM:                   0.5, 0.5, 0.2368
# Kpoint for CBM:                   0.5, 0.5, 0.5
# Dielectric constant, electronic:  3.5506
# Dielectric constant, ionic:       2.8785
# Dielectric constant, total:       6.4291
# Refractive index:                 1.8843
# Atomization energy (eV/atom):     -4.4058
# Relative energy1 (eV/atom):       0.0871
# Relative energy2 (eV/atom):       0.2266
# Volume of the unit cell (A^3):    236.96
# Density (g/cm^3):                 2.6016
# Tool:                             VASP
# Pseudopotential:                  PAW
# Note:                             ENCUT=400eV, k-spacing_relax=0.20/Angstrom, k-spacing_bandgap=0.15/Angstrom
# Created by:                       C.Kim, T.D.Huan, S.Krishnan, R. Ramprasad