data_1
_audit_creation_method   'Generated by vasp2cif'
_cell_length_a    6.45885970683
_cell_length_b    6.22170932564
_cell_length_c    6.18435474263
_cell_angle_alpha    77.6266951864
_cell_angle_beta    89.2664656517
_cell_angle_gamma    82.3360482255

_symmetry_space_group_name_H-M    'P 1'
loop_
_atom_site_label
_atom_site_type_symbol
_atom_site_fract_x
_atom_site_fract_y
_atom_site_fract_z
_atom_site_occupancy
C1   C   0.586418542589406   0.598346631164056   0.362252505164129   1.0
C2   C   0.614982244244821   0.403016626077239   0.247032352483153   1.0
C3   C   0.412524432707521   0.304252376307119   0.225308103512397   1.0
H4   H   0.288314870277070   0.429459558959692   0.139032935635783   1.0
H5   H   0.440100293952625   0.171885950232600   0.133609238976412   1.0
H6   H   0.735608080065404   0.274313504451939   0.334791024785332   1.0
H7   H   0.678714923827471   0.464029376637292   0.083580414926175   1.0
H8   H   0.576520505980668   0.382270370590021   0.678135205188838   1.0
H9   H   0.340727815917852   0.508967779596162   0.587843607589491   1.0
H10   H   0.352508577588139   0.230932888836108   0.386980064614775   1.0
H11   H   0.734067603444686   0.656588367103730   0.386566756973636   1.0
H12   H   0.476902180379000   0.737014846940319   0.274117707093311   1.0
H13   H   0.511602207707931   0.651261933828302   0.681710048643353   1.0
Br14   Br   0.620868759069495   0.957525677977273   0.806528027604301   1.0
Br15   Br   0.015999496705405   0.374465188455453   0.753661049966553   1.0
Br16   Br   0.048290248643298   0.897845750345361   0.269258120013937   1.0
N17   N   0.496385819314916   0.530538163232045   0.593054845604236   1.0
Ge18   Ge   0.032473397584383   0.945985009265264   0.849917991224395   1.0




# HOIP entry ID:                    0218
# Khazana ID:                       2068
# Organic cation source:            S.Kataoka et al., J. Am. Chem. Soc. 137, 4158 (2015)
# Label:                            Propylammonium Germanium Bromide
# Material class:                   Hybrid organic-inorganic perovskite ( MC_ino )
# Geometry class:                   Bulk crystalline materials ( GC_cry )
# Organic cation chemical formula:  CH3CH2CH2NH3
# Number of atom types:             5
# Total number of atoms:            18
# Atom types:                       C H N  Ge Br
# Number of each atom:              3 10 1  1 3
# Bandgap, HSE06 (eV):              3.2226
# Bandgap, GGA (eV):                2.3827
# Kpoint for VBM:                   0.5, 0.5, 0.5
# Kpoint for CBM:                   0.5, 0.5, 0.5
# Dielectric constant, electronic:  3.4523
# Dielectric constant, ionic:       2.2522
# Dielectric constant, total:       5.7045
# Refractive index:                 1.858
# Atomization energy (eV/atom):     -4.406
# Relative energy1 (eV/atom):       0.087
# Relative energy2 (eV/atom):       0.2264
# Volume of the unit cell (A^3):    240.55
# Density (g/cm^3):                 2.5628
# Tool:                             VASP
# Pseudopotential:                  PAW
# Note:                             ENCUT=400eV, k-spacing_relax=0.20/Angstrom, k-spacing_bandgap=0.15/Angstrom
# Created by:                       C.Kim, T.D.Huan, S.Krishnan, R. Ramprasad