data_1
_audit_creation_method   'Generated by vasp2cif'
_cell_length_a    6.17719408429
_cell_length_b    6.03715657241
_cell_length_c    6.60663523247
_cell_angle_alpha    81.655105366
_cell_angle_beta    76.9090572032
_cell_angle_gamma    80.0904996738

_symmetry_space_group_name_H-M    'P 1'
loop_
_atom_site_label
_atom_site_type_symbol
_atom_site_fract_x
_atom_site_fract_y
_atom_site_fract_z
_atom_site_occupancy
C1   C   0.535198990888667   0.618996749048222   0.342873287078611   1.0
C2   C   0.530557762724264   0.465921295747236   0.179929189243388   1.0
C3   C   0.405449937699423   0.263603454638002   0.266825052418106   1.0
H4   H   0.228467526594059   0.319880606028207   0.332699496794603   1.0
H5   H   0.412547895957623   0.161080356870713   0.142416227736362   1.0
H6   H   0.703114984336011   0.409240215855270   0.100884971486010   1.0
H7   H   0.449295544267699   0.571032080446166   0.061066043672568   1.0
H8   H   0.853997991066926   0.470687468654987   0.406295111920500   1.0
H9   H   0.644405361260475   0.352495757868724   0.568194605228243   1.0
H10   H   0.478434369024036   0.154065702151101   0.388734634195487   1.0
H11   H   0.600842875313212   0.774603122484407   0.271529893097053   1.0
H12   H   0.370608890502744   0.659090176911320   0.443104657416669   1.0
H13   H   0.693119315544280   0.609557321410009   0.599138862768704   1.0
Br14   Br   0.598281273931164   0.961597726106163   0.775108377194087   1.0
Br15   Br   0.096187887432400   0.441719509614948   0.802783323964057   1.0
Br16   Br   0.015882223798819   0.924374745479476   0.217368720469288   1.0
N17   N   0.691751595954010   0.503580255363396   0.489250148987075   1.0
Ge18   Ge   0.142245573704251   0.004433455321624   0.821177396329098   1.0




# HOIP entry ID:                    0219
# Khazana ID:                       2069
# Organic cation source:            S.Kataoka et al., J. Am. Chem. Soc. 137, 4158 (2015)
# Label:                            Propylammonium Germanium Bromide
# Material class:                   Hybrid organic-inorganic perovskite ( MC_ino )
# Geometry class:                   Bulk crystalline materials ( GC_cry )
# Organic cation chemical formula:  CH3CH2CH2NH3
# Number of atom types:             5
# Total number of atoms:            18
# Atom types:                       C H N  Ge Br
# Number of each atom:              3 10 1  1 3
# Bandgap, HSE06 (eV):              3.196
# Bandgap, GGA (eV):                2.3461
# Kpoint for VBM:                   0.5, 0.5, 0.4474
# Kpoint for CBM:                   0.5, 0.5, 0.5
# Dielectric constant, electronic:  3.6328
# Dielectric constant, ionic:       3.7459
# Dielectric constant, total:       7.3787
# Refractive index:                 1.906
# Atomization energy (eV/atom):     -4.4026
# Relative energy1 (eV/atom):       0.0903
# Relative energy2 (eV/atom):       0.2298
# Volume of the unit cell (A^3):    234.94
# Density (g/cm^3):                 2.624
# Tool:                             VASP
# Pseudopotential:                  PAW
# Note:                             ENCUT=400eV, k-spacing_relax=0.20/Angstrom, k-spacing_bandgap=0.15/Angstrom
# Created by:                       C.Kim, T.D.Huan, S.Krishnan, R. Ramprasad