data_1
_audit_creation_method   'Generated by vasp2cif'
_cell_length_a    7.91050248118
_cell_length_b    4.46361324608
_cell_length_c    7.27317277955
_cell_angle_alpha    78.9347381254
_cell_angle_beta    85.9432942089
_cell_angle_gamma    77.9128677379

_symmetry_space_group_name_H-M    'P 1'
loop_
_atom_site_label
_atom_site_type_symbol
_atom_site_fract_x
_atom_site_fract_y
_atom_site_fract_z
_atom_site_occupancy
C1   C   0.909694565773663   0.354138539711094   0.378543198027018   1.0
C2   C   0.744593939919518   0.225633201441426   0.428215857888901   1.0
C3   C   0.662767750921951   0.202751890393529   0.246884902292784   1.0
H4   H   0.543876865333324   0.113041962342493   0.279866148849607   1.0
H5   H   0.751152012209822   0.047283419205250   0.167181241041064   1.0
H6   H   0.774701571613782   0.994110072947507   0.517027866338587   1.0
H7   H   0.653375755290682   0.373711220249433   0.510294938701193   1.0
H8   H   0.056427434970729   0.058110871384166   0.602262577272526   1.0
H9   H   0.974653487275575   0.408394598911293   0.650530181034050   1.0
H10   H   0.986230582495324   0.244017959892275   0.270205551538425   1.0
H11   H   0.633384597259301   0.431864006257186   0.155937973615089   1.0
H12   H   0.882996071935011   0.605267046986818   0.329222088125348   1.0
H13   H   0.142423813886865   0.364003139230981   0.498842154569829   1.0
Br14   Br   0.431326621070440   0.902016250418995   0.753226334205038   1.0
Br15   Br   0.964532407826361   0.698409453073069   0.892493105457469   1.0
Br16   Br   0.273114031075167   0.764503828733126   0.286100874038745   1.0
N17   N   0.027806586977391   0.291245361598982   0.543155279317546   1.0
Ge18   Ge   0.294291904165121   0.492717177222318   0.985629727686806   1.0




# HOIP entry ID:                    0220
# Khazana ID:                       2070
# Organic cation source:            S.Kataoka et al., J. Am. Chem. Soc. 137, 4158 (2015)
# Label:                            Propylammonium Germanium Bromide
# Material class:                   Hybrid organic-inorganic perovskite ( MC_ino )
# Geometry class:                   Bulk crystalline materials ( GC_cry )
# Organic cation chemical formula:  CH3CH2CH2NH3
# Number of atom types:             5
# Total number of atoms:            18
# Atom types:                       C H N  Ge Br
# Number of each atom:              3 10 1  1 3
# Bandgap, HSE06 (eV):              4.0485
# Bandgap, GGA (eV):                3.0984
# Kpoint for VBM:                   0.2, 0.3333, 0.25
# Kpoint for CBM:                   -0.4, 0, 0.4167
# Dielectric constant, electronic:  3.271
# Dielectric constant, ionic:       2.4895
# Dielectric constant, total:       5.7604
# Refractive index:                 1.8086
# Atomization energy (eV/atom):     -4.3984
# Relative energy1 (eV/atom):       0.0945
# Relative energy2 (eV/atom):       0.234
# Volume of the unit cell (A^3):    246.32
# Density (g/cm^3):                 2.5027
# Tool:                             VASP
# Pseudopotential:                  PAW
# Note:                             ENCUT=400eV, k-spacing_relax=0.20/Angstrom, k-spacing_bandgap=0.15/Angstrom
# Created by:                       C.Kim, T.D.Huan, S.Krishnan, R. Ramprasad