data_1
_audit_creation_method   'Generated by vasp2cif'
_cell_length_a    7.67917351414
_cell_length_b    5.10807718267
_cell_length_c    8.14563567809
_cell_angle_alpha    86.7131228466
_cell_angle_beta    120.318340777
_cell_angle_gamma    112.799784875

_symmetry_space_group_name_H-M    'P 1'
loop_
_atom_site_label
_atom_site_type_symbol
_atom_site_fract_x
_atom_site_fract_y
_atom_site_fract_z
_atom_site_occupancy
C1   C   0.934287399723814   0.536632544550258   0.406321476760844   1.0
C2   C   0.782599402737532   0.631678260216823   0.430995647435132   1.0
C3   C   0.655408257273429   0.756814962952362   0.257027413283545   1.0
H4   H   0.767549003230229   0.929488833136702   0.225300850833150   1.0
H5   H   0.561549790271272   0.843627763762200   0.285222847348905   1.0
H6   H   0.665076756744057   0.448049884905927   0.451146273258914   1.0
H7   H   0.881930552921375   0.791564945845728   0.562715966506246   1.0
H8   H   0.954217835708114   0.266060118967225   0.619006463838943   1.0
H9   H   0.173414659979841   0.581967631834750   0.700989475930001   1.0
H10   H   0.841541959592341   0.366993412094033   0.281088371812025   1.0
H11   H   0.537119794649712   0.591540138619862   0.127357824622543   1.0
H12   H   0.061526728515531   0.715444753663306   0.394780686515013   1.0
H13   H   0.144471134890850   0.323603638492273   0.558611441787619   1.0
Br14   Br   0.301966979433722   0.036155960458281   0.904395558509620   1.0
Br15   Br   0.716749124198351   0.029537425035016   0.760193645768737   1.0
Br16   Br   0.218106147006530   0.248374972754611   0.293843461749653   1.0
N17   N   0.059914962512764   0.416961105303045   0.582500288259794   1.0
Ge18   Ge   0.003109510610493   0.834333647407554   0.002752305779175   1.0




# HOIP entry ID:                    0222
# Khazana ID:                       2072
# Organic cation source:            S.Kataoka et al., J. Am. Chem. Soc. 137, 4158 (2015)
# Label:                            Propylammonium Germanium Bromide
# Material class:                   Hybrid organic-inorganic perovskite ( MC_ino )
# Geometry class:                   Bulk crystalline materials ( GC_cry )
# Organic cation chemical formula:  CH3CH2CH2NH3
# Number of atom types:             5
# Total number of atoms:            18
# Atom types:                       C H N  Ge Br
# Number of each atom:              3 10 1  1 3
# Bandgap, HSE06 (eV):              4.2169
# Bandgap, GGA (eV):                3.2248
# Kpoint for VBM:                   0.5, 0.5, 0
# Kpoint for CBM:                   0.4, 0, 0.0833
# Dielectric constant, electronic:  3.1389
# Dielectric constant, ionic:       3.1575
# Dielectric constant, total:       6.2965
# Refractive index:                 1.7717
# Atomization energy (eV/atom):     -4.3927
# Relative energy1 (eV/atom):       0.1002
# Relative energy2 (eV/atom):       0.2397
# Volume of the unit cell (A^3):    250.4
# Density (g/cm^3):                 2.462
# Tool:                             VASP
# Pseudopotential:                  PAW
# Note:                             ENCUT=400eV, k-spacing_relax=0.20/Angstrom, k-spacing_bandgap=0.15/Angstrom
# Created by:                       C.Kim, T.D.Huan, S.Krishnan, R. Ramprasad