data_1
_audit_creation_method   'Generated by vasp2cif'
_cell_length_a    6.72416462201
_cell_length_b    5.71085673114
_cell_length_c    7.66264430875
_cell_angle_alpha    88.5281827647
_cell_angle_beta    116.687911933
_cell_angle_gamma    73.3789741319

_symmetry_space_group_name_H-M    'P 1'
loop_
_atom_site_label
_atom_site_type_symbol
_atom_site_fract_x
_atom_site_fract_y
_atom_site_fract_z
_atom_site_occupancy
C1   C   0.183798148969399   0.400277798999461   0.641037994040566   1.0
C2   C   0.284674872400925   0.596711460321981   0.609103487159847   1.0
C3   C   0.478914392042648   0.623580901848685   0.804975285609903   1.0
H4   H   0.413806082947495   0.668138083072744   0.912342390327818   1.0
H5   H   0.538100364294018   0.773630870288885   0.779188911332661   1.0
H6   H   0.353478245210174   0.547648858943625   0.504591058660190   1.0
H7   H   0.141978258604924   0.775404509088076   0.541791518454834   1.0
H8   H   0.958736201477827   0.401488733180911   0.337842156958948   1.0
H9   H   0.831098547421538   0.613573998207594   0.435548918199884   1.0
H10   H   0.296821129428236   0.211380214320622   0.657844255801381   1.0
H11   H   0.631471108711139   0.453772082156820   0.872831105004453   1.0
H12   H   0.155120095128545   0.414769613727033   0.770245468332734   1.0
H13   H   0.869050018445694   0.311489743617828   0.493363035524354   1.0
Br14   Br   0.734034813629007   0.004757375420486   0.148978654389743   1.0
Br15   Br   0.168080079729327   0.306466022018629   0.139927180690867   1.0
Br16   Br   0.791781884195907   0.014632406866750   0.671722524797109   1.0
N17   N   0.942639035539871   0.434026303071600   0.464169484631427   1.0
Ge18   Ge   0.067206721823381   0.892071024848292   0.057186570083209   1.0




# HOIP entry ID:                    0223
# Khazana ID:                       2073
# Organic cation source:            S.Kataoka et al., J. Am. Chem. Soc. 137, 4158 (2015)
# Label:                            Propylammonium Germanium Bromide
# Material class:                   Hybrid organic-inorganic perovskite ( MC_ino )
# Geometry class:                   Bulk crystalline materials ( GC_cry )
# Organic cation chemical formula:  CH3CH2CH2NH3
# Number of atom types:             5
# Total number of atoms:            18
# Atom types:                       C H N  Ge Br
# Number of each atom:              3 10 1  1 3
# Bandgap, HSE06 (eV):              3.3837
# Bandgap, GGA (eV):                2.4559
# Kpoint for VBM:                   0, 0.5, 0
# Kpoint for CBM:                   -0.4167, 0.4286, 0.0833
# Dielectric constant, electronic:  3.4494
# Dielectric constant, ionic:       3.7155
# Dielectric constant, total:       7.1649
# Refractive index:                 1.8572
# Atomization energy (eV/atom):     -4.3967
# Relative energy1 (eV/atom):       0.0962
# Relative energy2 (eV/atom):       0.2357
# Volume of the unit cell (A^3):    247.8
# Density (g/cm^3):                 2.4878
# Tool:                             VASP
# Pseudopotential:                  PAW
# Note:                             ENCUT=400eV, k-spacing_relax=0.20/Angstrom, k-spacing_bandgap=0.15/Angstrom
# Created by:                       C.Kim, T.D.Huan, S.Krishnan, R. Ramprasad