data_1
_audit_creation_method   'Generated by vasp2cif'
_cell_length_a    7.95539752475
_cell_length_b    5.17305813409
_cell_length_c    7.60178082946
_cell_angle_alpha    75.6086812499
_cell_angle_beta    57.6228745788
_cell_angle_gamma    93.2728624652

_symmetry_space_group_name_H-M    'P 1'
loop_
_atom_site_label
_atom_site_type_symbol
_atom_site_fract_x
_atom_site_fract_y
_atom_site_fract_z
_atom_site_occupancy
C1   C   0.635469214013355   0.612913550723569   0.936987561335556   1.0
C2   C   0.650076790983050   0.828482445587014   0.748771308193739   1.0
C3   C   0.814091266905621   0.088702135417343   0.656047786995956   1.0
H4   H   0.785515497073305   0.175188392845975   0.784454632151927   1.0
H5   H   0.818057317088609   0.243784415552064   0.526082649924938   1.0
H6   H   0.686290615558740   0.742889326343359   0.617912781786970   1.0
H7   H   0.501763684796444   0.880288484179665   0.805641341858056   1.0
H8   H   0.448948436785677   0.313555297806531   0.924533268806869   1.0
H9   H   0.322846066270849   0.415891732005640   0.142877319708227   1.0
H10   H   0.774690030621464   0.536486440037272   0.879111775503901   1.0
H11   H   0.966662057146699   0.046400997972256   0.584321244059289   1.0
H12   H   0.604553651583785   0.687973241980515   0.071273628589452   1.0
H13   H   0.474972557821396   0.199428166448470   0.134705780010727   1.0
Br14   Br   0.137007821813484   0.759101830013627   0.268745831912454   1.0
Br15   Br   0.285640672277346   0.332951714824219   0.710555229375537   1.0
Br16   Br   0.721200467205115   0.058481591518820   0.234605398569251   1.0
N17   N   0.459666054840760   0.366657085205773   0.041279866928683   1.0
Ge18   Ge   0.028617797214359   0.865613151537978   0.992022594288478   1.0




# HOIP entry ID:                    0224
# Khazana ID:                       2074
# Organic cation source:            S.Kataoka et al., J. Am. Chem. Soc. 137, 4158 (2015)
# Label:                            Propylammonium Germanium Bromide
# Material class:                   Hybrid organic-inorganic perovskite ( MC_ino )
# Geometry class:                   Bulk crystalline materials ( GC_cry )
# Organic cation chemical formula:  CH3CH2CH2NH3
# Number of atom types:             5
# Total number of atoms:            18
# Atom types:                       C H N  Ge Br
# Number of each atom:              3 10 1  1 3
# Bandgap, HSE06 (eV):              4.2587
# Bandgap, GGA (eV):                3.2487
# Kpoint for VBM:                   0.1, 0.5, 0.125
# Kpoint for CBM:                   0, 0.4375, 0.4375
# Dielectric constant, electronic:  3.1432
# Dielectric constant, ionic:       1.8107
# Dielectric constant, total:       4.954
# Refractive index:                 1.7729
# Atomization energy (eV/atom):     -4.3932
# Relative energy1 (eV/atom):       0.0997
# Relative energy2 (eV/atom):       0.2392
# Volume of the unit cell (A^3):    248.91
# Density (g/cm^3):                 2.4767
# Tool:                             VASP
# Pseudopotential:                  PAW
# Note:                             ENCUT=400eV, k-spacing_relax=0.20/Angstrom, k-spacing_bandgap=0.15/Angstrom
# Created by:                       C.Kim, T.D.Huan, S.Krishnan, R. Ramprasad