data_1
_audit_creation_method   'Generated by vasp2cif'
_cell_length_a    7.37816882507
_cell_length_b    5.31830771102
_cell_length_c    7.71062376674
_cell_angle_alpha    91.0747415015
_cell_angle_beta    116.36829611
_cell_angle_gamma    69.7760259936

_symmetry_space_group_name_H-M    'P 1'
loop_
_atom_site_label
_atom_site_type_symbol
_atom_site_fract_x
_atom_site_fract_y
_atom_site_fract_z
_atom_site_occupancy
C1   C   0.192147859571506   0.395895510575471   0.676045592395333   1.0
C2   C   0.281219923081110   0.584795918124364   0.621427999386356   1.0
C3   C   0.452665199024679   0.644517680408036   0.803394409161626   1.0
H4   H   0.586948811720355   0.458213331717509   0.895718026428426   1.0
H5   H   0.380848911070927   0.755701164649466   0.893083093997269   1.0
H6   H   0.352448979768674   0.492807263595303   0.526454098938245   1.0
H7   H   0.145300329923799   0.775086897790288   0.536837459756725   1.0
H8   H   0.044052587602110   0.280490030891855   0.397589709767715   1.0
H9   H   0.881464132492091   0.570582761847788   0.423995198663867   1.0
H10   H   0.313096310765410   0.189711113802375   0.734765205504715   1.0
H11   H   0.521181080792104   0.767882142451477   0.758805736474343   1.0
H12   H   0.134437664381053   0.468630669319303   0.782506024266475   1.0
H13   H   0.921971831464120   0.272712536958217   0.536064767730664   1.0
Br14   Br   0.736597496681362   0.985683180324614   0.167613461398744   1.0
Br15   Br   0.256855291266433   0.072553610285219   0.225902740313749   1.0
Br16   Br   0.795275491048535   0.040435518278571   0.693317329958177   1.0
N17   N   0.995889464525497   0.378817655954975   0.496389555132637   1.0
Ge18   Ge   0.029198634820290   0.782003013025268   0.054439590724876   1.0




# HOIP entry ID:                    0225
# Khazana ID:                       2075
# Organic cation source:            S.Kataoka et al., J. Am. Chem. Soc. 137, 4158 (2015)
# Label:                            Propylammonium Germanium Bromide
# Material class:                   Hybrid organic-inorganic perovskite ( MC_ino )
# Geometry class:                   Bulk crystalline materials ( GC_cry )
# Organic cation chemical formula:  CH3CH2CH2NH3
# Number of atom types:             5
# Total number of atoms:            18
# Atom types:                       C H N  Ge Br
# Number of each atom:              3 10 1  1 3
# Bandgap, HSE06 (eV):              3.8631
# Bandgap, GGA (eV):                2.9514
# Kpoint for VBM:                   0.3333, 0.5, 0.3333
# Kpoint for CBM:                   -0.3333, 0.25, 0.1667
# Dielectric constant, electronic:  3.1971
# Dielectric constant, ionic:       2.3577
# Dielectric constant, total:       5.5548
# Refractive index:                 1.788
# Atomization energy (eV/atom):     -4.396
# Relative energy1 (eV/atom):       0.097
# Relative energy2 (eV/atom):       0.2364
# Volume of the unit cell (A^3):    251.08
# Density (g/cm^3):                 2.4553
# Tool:                             VASP
# Pseudopotential:                  PAW
# Note:                             ENCUT=400eV, k-spacing_relax=0.20/Angstrom, k-spacing_bandgap=0.15/Angstrom
# Created by:                       C.Kim, T.D.Huan, S.Krishnan, R. Ramprasad