data_1
_audit_creation_method   'Generated by vasp2cif'
_cell_length_a    6.02491000707
_cell_length_b    6.0131716917
_cell_length_c    9.50071042784
_cell_angle_alpha    58.9017991059
_cell_angle_beta    123.219542813
_cell_angle_gamma    100.116726676

_symmetry_space_group_name_H-M    'P 1'
loop_
_atom_site_label
_atom_site_type_symbol
_atom_site_fract_x
_atom_site_fract_y
_atom_site_fract_z
_atom_site_occupancy
C1   C   0.884999714692974   0.607250014741616   0.374680521905105   1.0
C2   C   0.721018527508818   0.770894618618129   0.376970849051126   1.0
C3   C   0.536078598790596   0.000143667288825   0.170944896673816   1.0
H4   H   0.652286246391547   0.125541053783820   0.111231004794234   1.0
H5   H   0.425158502504935   0.117593425217933   0.175646742696451   1.0
H6   H   0.602974991182052   0.646171853837338   0.436265500698902   1.0
H7   H   0.857174628367055   0.846896610491065   0.473438293634743   1.0
H8   H   0.977703975829286   0.268799543625150   0.647134241814683   1.0
H9   H   0.213880845968788   0.458216408128656   0.669386396979228   1.0
H10   H   0.757873825597315   0.515033514233075   0.288817829990272   1.0
H11   H   0.392813795204859   0.931535471723329   0.071488005712048   1.0
H12   H   0.007600519559105   0.724302907366486   0.317792658480165   1.0
H13   H   0.184927720365451   0.268398747244881   0.580284257912361   1.0
Br14   Br   0.308112801247347   0.695119811255381   0.855208529819457   1.0
Br15   Br   0.791407447831048   0.192796701552268   0.848313478556236   1.0
Br16   Br   0.239251895554432   0.263130940404437   0.319911299508611   1.0
N17   N   0.079046613979614   0.384589051898281   0.581150166793535   1.0
Ge18   Ge   0.936889349424760   0.561175658589327   0.940945324979090   1.0




# HOIP entry ID:                    0226
# Khazana ID:                       2076
# Organic cation source:            S.Kataoka et al., J. Am. Chem. Soc. 137, 4158 (2015)
# Label:                            Propylammonium Germanium Bromide
# Material class:                   Hybrid organic-inorganic perovskite ( MC_ino )
# Geometry class:                   Bulk crystalline materials ( GC_cry )
# Organic cation chemical formula:  CH3CH2CH2NH3
# Number of atom types:             5
# Total number of atoms:            18
# Atom types:                       C H N  Ge Br
# Number of each atom:              3 10 1  1 3
# Bandgap, HSE06 (eV):              3.2796
# Bandgap, GGA (eV):                2.4276
# Kpoint for VBM:                   0.5, 0.5, 0
# Kpoint for CBM:                   0.4474, 0.4474, 0.4474
# Dielectric constant, electronic:  3.4784
# Dielectric constant, ionic:       4.2621
# Dielectric constant, total:       7.7405
# Refractive index:                 1.8651
# Atomization energy (eV/atom):     -4.3991
# Relative energy1 (eV/atom):       0.0938
# Relative energy2 (eV/atom):       0.2333
# Volume of the unit cell (A^3):    243.78
# Density (g/cm^3):                 2.5288
# Tool:                             VASP
# Pseudopotential:                  PAW
# Note:                             ENCUT=400eV, k-spacing_relax=0.20/Angstrom, k-spacing_bandgap=0.15/Angstrom
# Created by:                       C.Kim, T.D.Huan, S.Krishnan, R. Ramprasad