data_1
_audit_creation_method   'Generated by vasp2cif'
_cell_length_a    6.40971754774
_cell_length_b    6.06037375545
_cell_length_c    7.73606343983
_cell_angle_alpha    72.9468588648
_cell_angle_beta    71.6989720267
_cell_angle_gamma    77.250215175

_symmetry_space_group_name_H-M    'P 1'
loop_
_atom_site_label
_atom_site_type_symbol
_atom_site_fract_x
_atom_site_fract_y
_atom_site_fract_z
_atom_site_occupancy
C1   C   0.541509922019749   0.662447314753621   0.807290503479393   1.0
C2   C   0.488782174740521   0.276908206089509   0.500652557711248   1.0
C3   C   0.440664514470470   0.384111603239042   0.666593296660828   1.0
C4   C   0.566226132498969   0.590355954628393   0.627128498978024   1.0
H5   H   0.201011448021156   0.451069676733475   0.412362718323870   1.0
H6   H   0.400445872472851   0.353218667438483   0.245425527010816   1.0
H7   H   0.419594033029888   0.595680811640534   0.300281120304810   1.0
H8   H   0.366453431086995   0.699894578248120   0.880177964819531   1.0
H9   H   0.620579727261891   0.522548196447659   0.903133003399986   1.0
H10   H   0.619573400580407   0.816762094569199   0.777400941365791   1.0
H11   H   0.487570816955476   0.245374172004397   0.780450337731224   1.0
H12   H   0.260932308425041   0.436812531081451   0.717155682673720   1.0
H13   H   0.742943035803727   0.541069658048620   0.561720081377011   1.0
H14   H   0.505483478255549   0.739525605347943   0.525913377043288   1.0
H15   H   0.665023092626555   0.255720606711890   0.428134216388763   1.0
H16   H   0.427397539672398   0.110452254807747   0.542164762644596   1.0
Br17   Br   0.991977806357554   0.025792199383410   0.683522363126521   1.0
Br18   Br   0.478449235680316   0.995737593794431   0.140900333196392   1.0
Br19   Br   0.965918640877540   0.495947188007612   0.122048130056520   1.0
N20   N   0.370249577255841   0.431656560410644   0.354847299200095   1.0
Ge21   Ge   0.919263811907257   0.947804526613531   0.040977284508123   1.0




# HOIP entry ID:                    0227
# Khazana ID:                       2077
# Organic cation source:            H. Hu et al., Sci. Rep. 6, 33546 (2016)
# Label:                            Butylammonium Germanium Bromide
# Material class:                   Hybrid organic-inorganic perovskite ( MC_ino )
# Geometry class:                   Bulk crystalline materials ( GC_cry )
# Organic cation chemical formula:  CH3CH2CH2CH2NH3
# Number of atom types:             5
# Total number of atoms:            21
# Atom types:                       C H N  Ge Br
# Number of each atom:              4 12 1  1 3
# Bandgap, HSE06 (eV):              3.569
# Bandgap, GGA (eV):                2.6513
# Kpoint for VBM:                   0.5, 0.5, 0
# Kpoint for CBM:                   0.5, 0.5, 0.5
# Dielectric constant, electronic:  3.2001
# Dielectric constant, ionic:       2.2023
# Dielectric constant, total:       5.4024
# Refractive index:                 1.7889
# Atomization energy (eV/atom):     -4.4983
# Relative energy1 (eV/atom):       0.0314
# Relative energy2 (eV/atom):       0.151
# Volume of the unit cell (A^3):    270.01
# Density (g/cm^3):                 2.3694
# Tool:                             VASP
# Pseudopotential:                  PAW
# Note:                             ENCUT=400eV, k-spacing_relax=0.20/Angstrom, k-spacing_bandgap=0.15/Angstrom
# Created by:                       C.Kim, T.D.Huan, S.Krishnan, R. Ramprasad