data_1
_audit_creation_method   'Generated by vasp2cif'
_cell_length_a    6.45183966146
_cell_length_b    7.23208325795
_cell_length_c    6.32866294129
_cell_angle_alpha    77.8250744016
_cell_angle_beta    98.4852066663
_cell_angle_gamma    111.503979337

_symmetry_space_group_name_H-M    'P 1'
loop_
_atom_site_label
_atom_site_type_symbol
_atom_site_fract_x
_atom_site_fract_y
_atom_site_fract_z
_atom_site_occupancy
C1   C   0.212742111200065   0.683374672428009   0.530932567400832   1.0
C2   C   0.426565911205714   0.275527012375179   0.413295236503622   1.0
C3   C   0.333094526174499   0.446251759125104   0.371918585027991   1.0
C4   C   0.286370041183815   0.499190016530981   0.579319703677633   1.0
H5   H   0.765708632895766   0.461128539123337   0.427594365475237   1.0
H6   H   0.724866785439964   0.223259187695731   0.547058801358681   1.0
H7   H   0.667859633331908   0.379499360567706   0.674080915898372   1.0
H8   H   0.347171829539434   0.817876389159750   0.463921505105581   1.0
H9   H   0.069743637149877   0.664576627423358   0.410083896514855   1.0
H10   H   0.167895717621903   0.710713639163345   0.677575327083282   1.0
H11   H   0.177634087639753   0.399644594827173   0.268051054322640   1.0
H12   H   0.446595553829276   0.581032118671253   0.276761774283749   1.0
H13   H   0.158189125626464   0.367724086953004   0.663202946668420   1.0
H14   H   0.435335504683003   0.530514172528541   0.693698822778565   1.0
H15   H   0.327354352488882   0.143038816318388   0.519318356896591   1.0
H16   H   0.441930115067556   0.232072040918517   0.263369703019535   1.0
Br17   Br   0.376230353154249   0.986276668690891   0.969641535501808   1.0
Br18   Br   0.844698589536257   0.955130364467060   0.528758317420461   1.0
Br19   Br   0.823698465987960   0.529346764714425   0.008682691246825   1.0
N20   N   0.661963546897482   0.339894572194332   0.525043228597035   1.0
Ge21   Ge   0.952261479346156   0.920258596123951   0.949870665218285   1.0




# HOIP entry ID:                    0228
# Khazana ID:                       2078
# Organic cation source:            H. Hu et al., Sci. Rep. 6, 33546 (2016)
# Label:                            Butylammonium Germanium Bromide
# Material class:                   Hybrid organic-inorganic perovskite ( MC_ino )
# Geometry class:                   Bulk crystalline materials ( GC_cry )
# Organic cation chemical formula:  CH3CH2CH2CH2NH3
# Number of atom types:             5
# Total number of atoms:            21
# Atom types:                       C H N  Ge Br
# Number of each atom:              4 12 1  1 3
# Bandgap, HSE06 (eV):              3.6561
# Bandgap, GGA (eV):                2.7665
# Kpoint for VBM:                   0.5, 0.5, 0.5
# Kpoint for CBM:                   0.5, 0.5, 0.5
# Dielectric constant, electronic:  3.2117
# Dielectric constant, ionic:       1.8206
# Dielectric constant, total:       5.0322
# Refractive index:                 1.7921
# Atomization energy (eV/atom):     -4.4983
# Relative energy1 (eV/atom):       0.0314
# Relative energy2 (eV/atom):       0.151
# Volume of the unit cell (A^3):    267.76
# Density (g/cm^3):                 2.3893
# Tool:                             VASP
# Pseudopotential:                  PAW
# Note:                             ENCUT=400eV, k-spacing_relax=0.20/Angstrom, k-spacing_bandgap=0.15/Angstrom
# Created by:                       C.Kim, T.D.Huan, S.Krishnan, R. Ramprasad