data_1
_audit_creation_method   'Generated by vasp2cif'
_cell_length_a    6.69123272382
_cell_length_b    5.9160318032
_cell_length_c    7.59409730878
_cell_angle_alpha    70.142461642
_cell_angle_beta    84.556448445
_cell_angle_gamma    90.8325742839

_symmetry_space_group_name_H-M    'P 1'
loop_
_atom_site_label
_atom_site_type_symbol
_atom_site_fract_x
_atom_site_fract_y
_atom_site_fract_z
_atom_site_occupancy
C1   C   0.460214564672320   0.627226217929703   0.817927631473133   1.0
C2   C   0.486310538798023   0.229462229906403   0.498766034401484   1.0
C3   C   0.408539110313548   0.340628885961401   0.644289379011049   1.0
C4   C   0.553766315742209   0.530222650631799   0.667315655425710   1.0
H5   H   0.355296900479693   0.467584359652435   0.267570677143603   1.0
H6   H   0.561412708888462   0.341293538667465   0.205570585875755   1.0
H7   H   0.583791031413796   0.567138927855268   0.288014054517547   1.0
H8   H   0.326388445067771   0.725028104714639   0.772461914255473   1.0
H9   H   0.410798502882713   0.477491303384028   0.947230409417131   1.0
H10   H   0.566013864028584   0.746387340609665   0.849648992297567   1.0
H11   H   0.381774771598529   0.192966570939589   0.779573003292938   1.0
H12   H   0.261936872009322   0.416631229163315   0.611265057479926   1.0
H13   H   0.697158366624159   0.449674904396424   0.705888457505054   1.0
H14   H   0.589067769047837   0.680540484011409   0.534025766763982   1.0
H15   H   0.637423521233643   0.165306244677815   0.519319895157032   1.0
H16   H   0.385744346273562   0.082504393775487   0.498726637567259   1.0
Br17   Br   0.966792421680637   0.939780355763354   0.693259430847938   1.0
Br18   Br   0.619084951163792   0.006808521586123   0.107203409791488   1.0
Br19   Br   0.009766986994663   0.524081245304885   0.215472984367260   1.0
N20   N   0.497933744096130   0.414808645637827   0.302026171673440   1.0
Ge21   Ge   0.004014266990595   0.981453845431055   0.011523851735205   1.0




# HOIP entry ID:                    0229
# Khazana ID:                       2079
# Organic cation source:            H. Hu et al., Sci. Rep. 6, 33546 (2016)
# Label:                            Butylammonium Germanium Bromide
# Material class:                   Hybrid organic-inorganic perovskite ( MC_ino )
# Geometry class:                   Bulk crystalline materials ( GC_cry )
# Organic cation chemical formula:  CH3CH2CH2CH2NH3
# Number of atom types:             5
# Total number of atoms:            21
# Atom types:                       C H N  Ge Br
# Number of each atom:              4 12 1  1 3
# Bandgap, HSE06 (eV):              4.0297
# Bandgap, GGA (eV):                3.0726
# Kpoint for VBM:                   0.5, 0.5, 0
# Kpoint for CBM:                   0.5, 0.5, 0.5
# Dielectric constant, electronic:  2.9843
# Dielectric constant, ionic:       1.5914
# Dielectric constant, total:       4.5757
# Refractive index:                 1.7275
# Atomization energy (eV/atom):     -4.4975
# Relative energy1 (eV/atom):       0.0323
# Relative energy2 (eV/atom):       0.1518
# Volume of the unit cell (A^3):    281.12
# Density (g/cm^3):                 2.2758
# Tool:                             VASP
# Pseudopotential:                  PAW
# Note:                             ENCUT=400eV, k-spacing_relax=0.20/Angstrom, k-spacing_bandgap=0.15/Angstrom
# Created by:                       C.Kim, T.D.Huan, S.Krishnan, R. Ramprasad