data_1
_audit_creation_method   'Generated by vasp2cif'
_cell_length_a    6.50891584997
_cell_length_b    6.08579089223
_cell_length_c    6.21975735807
_cell_angle_alpha    80.7337331783
_cell_angle_beta    82.1929546314
_cell_angle_gamma    88.1381041551

_symmetry_space_group_name_H-M    'P 1'
loop_
_atom_site_label
_atom_site_type_symbol
_atom_site_fract_x
_atom_site_fract_y
_atom_site_fract_z
_atom_site_occupancy
C1   C   0.396241724787444   0.715982648857370   0.213233484824606   1.0
C2   C   0.560440845605555   0.891991330840170   0.205497841680874   1.0
C3   C   0.503453190777364   0.055259689474219   0.366689113068730   1.0
H4   H   0.480882771363618   0.967938614366595   0.536344032435458   1.0
H5   H   0.623340874627154   0.179955754921302   0.351039613998914   1.0
H6   H   0.359081116191817   0.140553959095754   0.331916351046644   1.0
H7   H   0.875513603072164   0.893193655072714   0.261426362088670   1.0
H8   H   0.598649734660619   0.980101151843002   0.037882921914566   1.0
H9   H   0.452164537513376   0.588360258656827   0.113668438490407   1.0
H10   H   0.261735729207601   0.797649923023783   0.145195764718736   1.0
H11   H   0.346923943059046   0.636341785755782   0.382354145160655   1.0
H12   H   0.821945723710563   0.671064071222311   0.152950846325275   1.0
H13   H   0.739275257138338   0.681495058382339   0.418115707727750   1.0
Br14   Br   0.622853670719628   0.403623767187355   0.742048802964710   1.0
Br15   Br   0.007892838810264   0.891594617356645   0.725829797345476   1.0
Br16   Br   0.031877687046872   0.296964184238789   0.134101511060514   1.0
N17   N   0.764212627493336   0.775621473724250   0.262533559073994   1.0
Ge18   Ge   0.020024124215269   0.318238055980771   0.715751706073995   1.0




# HOIP entry ID:                    0230
# Khazana ID:                       2080
# Organic cation source:            C.C.Stoumpos et al., J. Am. Chem. Soc. 137, 6804 (2015)
# Label:                            Isopropylammonium Germanium Bromide
# Material class:                   Hybrid organic-inorganic perovskite ( MC_ino )
# Geometry class:                   Bulk crystalline materials ( GC_cry )
# Organic cation chemical formula:  (CH3)2CHNH3
# Number of atom types:             5
# Total number of atoms:            18
# Atom types:                       C H N  Ge Br
# Number of each atom:              3 10 1  1 3
# Bandgap, HSE06 (eV):              3.68
# Bandgap, GGA (eV):                2.7716
# Kpoint for VBM:                   0.4211, 0.4211, 0.4211
# Kpoint for CBM:                   0.5, 0.5, 0.5
# Dielectric constant, electronic:  3.4163
# Dielectric constant, ionic:       2.2667
# Dielectric constant, total:       5.683
# Refractive index:                 1.8483
# Atomization energy (eV/atom):     -4.4112
# Relative energy1 (eV/atom):       0.0877
# Relative energy2 (eV/atom):       0.2272
# Volume of the unit cell (A^3):    240.89
# Density (g/cm^3):                 2.5592
# Tool:                             VASP
# Pseudopotential:                  PAW
# Note:                             ENCUT=400eV, k-spacing_relax=0.20/Angstrom, k-spacing_bandgap=0.15/Angstrom
# Created by:                       C.Kim, T.D.Huan, S.Krishnan, R. Ramprasad