data_1
_audit_creation_method   'Generated by vasp2cif'
_cell_length_a    6.45374188787
_cell_length_b    6.37749095047
_cell_length_c    6.00704125482
_cell_angle_alpha    78.4445844996
_cell_angle_beta    83.9334263344
_cell_angle_gamma    90.795434001

_symmetry_space_group_name_H-M    'P 1'
loop_
_atom_site_label
_atom_site_type_symbol
_atom_site_fract_x
_atom_site_fract_y
_atom_site_fract_z
_atom_site_occupancy
C1   C   0.425166700184754   0.656990111987724   0.350964919137198   1.0
C2   C   0.608194547901427   0.754869260936090   0.440975436096004   1.0
C3   C   0.547360250283532   0.848438356795548   0.652058105271813   1.0
H4   H   0.446985664135731   0.982992324903819   0.605258336112030   1.0
H5   H   0.460572402756021   0.730288429838595   0.787984588823122   1.0
H6   H   0.683694387151796   0.907312179473877   0.716928759466477   1.0
H7   H   0.885200114726068   0.632767420572122   0.578598693195651   1.0
H8   H   0.692656400223207   0.875806072534594   0.305888966379335   1.0
H9   H   0.309980361185637   0.778759125650353   0.311509900414784   1.0
H10   H   0.349503147923990   0.523552735069735   0.479304732483960   1.0
H11   H   0.474816431410773   0.598074976979923   0.195928206534390   1.0
H12   H   0.831608512535247   0.531537202354066   0.353547526574466   1.0
H13   H   0.695217739422354   0.448012907091716   0.612544498693858   1.0
Br14   Br   0.517992924586316   0.237760833466808   0.991535268827811   1.0
Br15   Br   0.030031112337724   0.618594827287041   0.959768735153162   1.0
Br16   Br   0.050578623085215   0.133886051528393   0.458199219445802   1.0
N17   N   0.766274378106992   0.579425695705375   0.499018859509896   1.0
Ge18   Ge   0.113896302043209   0.207741487824173   0.016735247880249   1.0




# HOIP entry ID:                    0231
# Khazana ID:                       2081
# Organic cation source:            C.C.Stoumpos et al., J. Am. Chem. Soc. 137, 6804 (2015)
# Label:                            Isopropylammonium Germanium Bromide
# Material class:                   Hybrid organic-inorganic perovskite ( MC_ino )
# Geometry class:                   Bulk crystalline materials ( GC_cry )
# Organic cation chemical formula:  (CH3)2CHNH3
# Number of atom types:             5
# Total number of atoms:            18
# Atom types:                       C H N  Ge Br
# Number of each atom:              3 10 1  1 3
# Bandgap, HSE06 (eV):              3.3887
# Bandgap, GGA (eV):                2.5742
# Kpoint for VBM:                   0.5, 0.5, 0.5
# Kpoint for CBM:                   0.5, 0.5, 0.3947
# Dielectric constant, electronic:  3.441
# Dielectric constant, ionic:       2.4398
# Dielectric constant, total:       5.8808
# Refractive index:                 1.855
# Atomization energy (eV/atom):     -4.4125
# Relative energy1 (eV/atom):       0.0865
# Relative energy2 (eV/atom):       0.226
# Volume of the unit cell (A^3):    240.72
# Density (g/cm^3):                 2.561
# Tool:                             VASP
# Pseudopotential:                  PAW
# Note:                             ENCUT=400eV, k-spacing_relax=0.20/Angstrom, k-spacing_bandgap=0.15/Angstrom
# Created by:                       C.Kim, T.D.Huan, S.Krishnan, R. Ramprasad