data_1
_audit_creation_method   'Generated by vasp2cif'
_cell_length_a    6.79290405151
_cell_length_b    5.79529383719
_cell_length_c    6.33846944417
_cell_angle_alpha    96.7133063634
_cell_angle_beta    86.219700498
_cell_angle_gamma    96.8411855774

_symmetry_space_group_name_H-M    'P 1'
loop_
_atom_site_label
_atom_site_type_symbol
_atom_site_fract_x
_atom_site_fract_y
_atom_site_fract_z
_atom_site_occupancy
C1   C   0.568807231193199   0.757584900431400   0.295410998003987   1.0
C2   C   0.584181612907275   0.574681850762150   0.446422425996154   1.0
C3   C   0.781706629295763   0.597539053899820   0.552063905419569   1.0
H4   H   0.901982857693208   0.583454361086820   0.430031711744168   1.0
H5   H   0.785487693443846   0.460550289307633   0.655801451491098   1.0
H6   H   0.808334030472124   0.768339557083869   0.645814903255209   1.0
H7   H   0.281640089747574   0.565391039784981   0.566384832267671   1.0
H8   H   0.549302862734574   0.398498925397514   0.365547489413252   1.0
H9   H   0.672872709150690   0.729705632393196   0.158451365140580   1.0
H10   H   0.419391754455935   0.743653077102914   0.237685584542957   1.0
H11   H   0.606050485307317   0.934879206672905   0.374048381442187   1.0
H12   H   0.429286973019732   0.481153941410695   0.733117465883701   1.0
H13   H   0.436225456277839   0.766382491154130   0.705462400703954   1.0
Br14   Br   0.490381246323928   0.150086149613373   0.927944056744227   1.0
Br15   Br   0.066918099106953   0.620674878648417   0.003020296114660   1.0
Br16   Br   0.118210158279992   0.127371177851628   0.442606229881533   1.0
N17   N   0.421303008597267   0.599713096384617   0.624441536794246   1.0
Ge18   Ge   0.101977101992748   0.079410371013958   0.036144965160797   1.0




# HOIP entry ID:                    0233
# Khazana ID:                       2083
# Organic cation source:            C.C.Stoumpos et al., J. Am. Chem. Soc. 137, 6804 (2015)
# Label:                            Isopropylammonium Germanium Bromide
# Material class:                   Hybrid organic-inorganic perovskite ( MC_ino )
# Geometry class:                   Bulk crystalline materials ( GC_cry )
# Organic cation chemical formula:  (CH3)2CHNH3
# Number of atom types:             5
# Total number of atoms:            18
# Atom types:                       C H N  Ge Br
# Number of each atom:              3 10 1  1 3
# Bandgap, HSE06 (eV):              3.1347
# Bandgap, GGA (eV):                2.2394
# Kpoint for VBM:                   0.5, 0.5, 0.5
# Kpoint for CBM:                   0.5, 0.5, 0.5
# Dielectric constant, electronic:  3.4724
# Dielectric constant, ionic:       3.1588
# Dielectric constant, total:       6.6312
# Refractive index:                 1.8634
# Atomization energy (eV/atom):     -4.4091
# Relative energy1 (eV/atom):       0.0898
# Relative energy2 (eV/atom):       0.2293
# Volume of the unit cell (A^3):    245.71
# Density (g/cm^3):                 2.509
# Tool:                             VASP
# Pseudopotential:                  PAW
# Note:                             ENCUT=400eV, k-spacing_relax=0.20/Angstrom, k-spacing_bandgap=0.15/Angstrom
# Created by:                       C.Kim, T.D.Huan, S.Krishnan, R. Ramprasad