data_1
_audit_creation_method   'Generated by vasp2cif'
_cell_length_a    7.45104554674
_cell_length_b    4.8664326347
_cell_length_c    7.73423027623
_cell_angle_alpha    94.1130000737
_cell_angle_beta    97.7302772646
_cell_angle_gamma    114.662300586

_symmetry_space_group_name_H-M    'P 1'
loop_
_atom_site_label
_atom_site_type_symbol
_atom_site_fract_x
_atom_site_fract_y
_atom_site_fract_z
_atom_site_occupancy
C1   C   0.697857010253853   0.936381698689246   0.610543765818534   1.0
C2   C   0.584533112007553   0.589072805069938   0.587723773382567   1.0
C3   C   0.467868736845347   0.476255627734565   0.736004152504613   1.0
H4   H   0.570764925140973   0.559859073299258   0.862555497075191   1.0
H5   H   0.390659371264366   0.227052393841197   0.722424744442956   1.0
H6   H   0.355906430436511   0.566073141908729   0.740417106080795   1.0
H7   H   0.502136061363301   0.527239756294035   0.305202899235262   1.0
H8   H   0.688110798705889   0.486939437720604   0.573238311329778   1.0
H9   H   0.767044787473407   0.017198654525303   0.497104407021088   1.0
H10   H   0.595225658272295   0.038040603076538   0.631836452596024   1.0
H11   H   0.816776858189148   0.012676542859980   0.726712584506807   1.0
H12   H   0.347653989520077   0.242451952695194   0.396766110749458   1.0
H13   H   0.333351822166705   0.574176638569026   0.411000759598607   1.0
Br14   Br   0.074263546958901   0.736442338170994   0.441642771422259   1.0
Br15   Br   0.126275557715937   0.289587820755376   0.020372531553979   1.0
Br16   Br   0.595533455465096   0.064416910854683   0.137689177823461   1.0
N17   N   0.433514877980931   0.476383256531709   0.413148502502311   1.0
Ge18   Ge   0.909103000239825   0.554801347403619   0.102576452356157   1.0




# HOIP entry ID:                    0234
# Khazana ID:                       2084
# Organic cation source:            C.C.Stoumpos et al., J. Am. Chem. Soc. 137, 6804 (2015)
# Label:                            Isopropylammonium Germanium Bromide
# Material class:                   Hybrid organic-inorganic perovskite ( MC_ino )
# Geometry class:                   Bulk crystalline materials ( GC_cry )
# Organic cation chemical formula:  (CH3)2CHNH3
# Number of atom types:             5
# Total number of atoms:            18
# Atom types:                       C H N  Ge Br
# Number of each atom:              3 10 1  1 3
# Bandgap, HSE06 (eV):              3.9032
# Bandgap, GGA (eV):                2.9611
# Kpoint for VBM:                   0.5, 0.5, 0.1
# Kpoint for CBM:                   0, 0.5, 0.5
# Dielectric constant, electronic:  3.1747
# Dielectric constant, ionic:       2.6578
# Dielectric constant, total:       5.8325
# Refractive index:                 1.7818
# Atomization energy (eV/atom):     -4.4045
# Relative energy1 (eV/atom):       0.0944
# Relative energy2 (eV/atom):       0.2339
# Volume of the unit cell (A^3):    249.99
# Density (g/cm^3):                 2.466
# Tool:                             VASP
# Pseudopotential:                  PAW
# Note:                             ENCUT=400eV, k-spacing_relax=0.20/Angstrom, k-spacing_bandgap=0.15/Angstrom
# Created by:                       C.Kim, T.D.Huan, S.Krishnan, R. Ramprasad