data_1
_audit_creation_method   'Generated by vasp2cif'
_cell_length_a    8.17883526058
_cell_length_b    4.76420933968
_cell_length_c    7.14513142839
_cell_angle_alpha    112.326903947
_cell_angle_beta    79.7970223536
_cell_angle_gamma    103.46701619

_symmetry_space_group_name_H-M    'P 1'
loop_
_atom_site_label
_atom_site_type_symbol
_atom_site_fract_x
_atom_site_fract_y
_atom_site_fract_z
_atom_site_occupancy
C1   C   0.345231865105120   0.372610623643226   0.689968140126346   1.0
C2   C   0.401694253994194   0.064037558091798   0.563973819841088   1.0
C3   C   0.273135102533942   0.842663494445723   0.418779251114856   1.0
H4   H   0.152019627446492   0.799224891523316   0.505284617379559   1.0
H5   H   0.312454163495268   0.621578863913356   0.331040263592243   1.0
H6   H   0.252480735630840   0.943498062944130   0.311944733433727   1.0
H7   H   0.663233247614457   0.267199942924364   0.529431567146169   1.0
H8   H   0.428835468430464   0.961660941545006   0.665622712803568   1.0
H9   H   0.289048840425345   0.452423668463673   0.595743032331505   1.0
H10   H   0.249340488531345   0.337053707991586   0.810792974135630   1.0
H11   H   0.448671539455915   0.550219579488257   0.763534726609215   1.0
H12   H   0.614624496020312   0.911678291288482   0.360321885346465   1.0
H13   H   0.561715766861575   0.207661715904138   0.331379143814708   1.0
Br14   Br   0.581980659512091   0.385696231489291   0.065975705819398   1.0
Br15   Br   0.986137438941334   0.142831172859431   0.164898861435446   1.0
Br16   Br   0.818732634934598   0.820145919714513   0.634623527921285   1.0
N17   N   0.571430052642853   0.116599850127038   0.439291478941648   1.0
Ge18   Ge   0.898593618423817   0.360735483642834   0.923323558207095   1.0




# HOIP entry ID:                    0235
# Khazana ID:                       2085
# Organic cation source:            C.C.Stoumpos et al., J. Am. Chem. Soc. 137, 6804 (2015)
# Label:                            Isopropylammonium Germanium Bromide
# Material class:                   Hybrid organic-inorganic perovskite ( MC_ino )
# Geometry class:                   Bulk crystalline materials ( GC_cry )
# Organic cation chemical formula:  (CH3)2CHNH3
# Number of atom types:             5
# Total number of atoms:            18
# Atom types:                       C H N  Ge Br
# Number of each atom:              3 10 1  1 3
# Bandgap, HSE06 (eV):              4.0675
# Bandgap, GGA (eV):                3.1186
# Kpoint for VBM:                   0.1, -0.3889, 0.2143
# Kpoint for CBM:                   0, 0, 0.4286
# Dielectric constant, electronic:  3.2073
# Dielectric constant, ionic:       2.3105
# Dielectric constant, total:       5.5178
# Refractive index:                 1.7909
# Atomization energy (eV/atom):     -4.4035
# Relative energy1 (eV/atom):       0.0955
# Relative energy2 (eV/atom):       0.2349
# Volume of the unit cell (A^3):    249.24
# Density (g/cm^3):                 2.4734
# Tool:                             VASP
# Pseudopotential:                  PAW
# Note:                             ENCUT=400eV, k-spacing_relax=0.20/Angstrom, k-spacing_bandgap=0.15/Angstrom
# Created by:                       C.Kim, T.D.Huan, S.Krishnan, R. Ramprasad