data_1
_audit_creation_method   'Generated by vasp2cif'
_cell_length_a    8.24626386293
_cell_length_b    4.8001876972
_cell_length_c    7.07495059323
_cell_angle_alpha    110.758510133
_cell_angle_beta    77.7095186689
_cell_angle_gamma    107.928635095

_symmetry_space_group_name_H-M    'P 1'
loop_
_atom_site_label
_atom_site_type_symbol
_atom_site_fract_x
_atom_site_fract_y
_atom_site_fract_z
_atom_site_occupancy
C1   C   0.674574885025827   0.335676612991435   0.333171456606252   1.0
C2   C   0.609904763164053   0.099601557676891   0.449402151334652   1.0
C3   C   0.730837140759881   0.150511345467571   0.601641702911472   1.0
H4   H   0.858819733004950   0.141154117949277   0.522317552227314   1.0
H5   H   0.687347304361673   0.979849940637301   0.682170571430390   1.0
H6   H   0.742770226030316   0.379739593849088   0.714558942098719   1.0
H7   H   0.345738220425766   0.105816406387696   0.475589599716521   1.0
H8   H   0.588322615888650   0.866712139426447   0.341468205304011   1.0
H9   H   0.720226639928200   0.566169487326391   0.437313686964472   1.0
H10   H   0.782832036438080   0.276359230914004   0.221636087475517   1.0
H11   H   0.576452933472062   0.334120015755232   0.250367997577541   1.0
H12   H   0.381403222904687   0.943130687369667   0.632362745012941   1.0
H13   H   0.436795157346779   0.322675246865899   0.685108717556190   1.0
Br14   Br   0.410809990713773   0.783144335158376   0.943168868876924   1.0
Br15   Br   0.012264855718932   0.980790014919570   0.836742562146995   1.0
Br16   Br   0.186685346554086   0.352052722872045   0.356078485701275   1.0
N17   N   0.431856079719694   0.117018665456968   0.566744020884933   1.0
Ge18   Ge   0.093428848542651   0.791427878976116   0.092786646173849   1.0




# HOIP entry ID:                    0236
# Khazana ID:                       2086
# Organic cation source:            C.C.Stoumpos et al., J. Am. Chem. Soc. 137, 6804 (2015)
# Label:                            Isopropylammonium Germanium Bromide
# Material class:                   Hybrid organic-inorganic perovskite ( MC_ino )
# Geometry class:                   Bulk crystalline materials ( GC_cry )
# Organic cation chemical formula:  (CH3)2CHNH3
# Number of atom types:             5
# Total number of atoms:            18
# Atom types:                       C H N  Ge Br
# Number of each atom:              3 10 1  1 3
# Bandgap, HSE06 (eV):              4.1997
# Bandgap, GGA (eV):                3.2309
# Kpoint for VBM:                   0, -0.3333, 0.0833
# Kpoint for CBM:                   0, 0, 0.4167
# Dielectric constant, electronic:  3.1959
# Dielectric constant, ionic:       1.9653
# Dielectric constant, total:       5.1612
# Refractive index:                 1.7877
# Atomization energy (eV/atom):     -4.4026
# Relative energy1 (eV/atom):       0.0963
# Relative energy2 (eV/atom):       0.2358
# Volume of the unit cell (A^3):    247.46
# Density (g/cm^3):                 2.4912
# Tool:                             VASP
# Pseudopotential:                  PAW
# Note:                             ENCUT=400eV, k-spacing_relax=0.20/Angstrom, k-spacing_bandgap=0.15/Angstrom
# Created by:                       C.Kim, T.D.Huan, S.Krishnan, R. Ramprasad