data_1
_audit_creation_method   'Generated by vasp2cif'
_cell_length_a    7.75471513546
_cell_length_b    4.35984822304
_cell_length_c    7.45372957965
_cell_angle_alpha    78.7581793508
_cell_angle_beta    79.4472715455
_cell_angle_gamma    93.1129604186

_symmetry_space_group_name_H-M    'P 1'
loop_
_atom_site_label
_atom_site_type_symbol
_atom_site_fract_x
_atom_site_fract_y
_atom_site_fract_z
_atom_site_occupancy
C1   C   0.580181874556036   0.005593328345007   0.288240713597914   1.0
C2   C   0.542898519386524   0.990587645674062   0.498519244629605   1.0
C3   C   0.686155204495251   0.172156338403780   0.561825613968645   1.0
H4   H   0.809270097042923   0.064287522568662   0.532410905111332   1.0
H5   H   0.655353870974901   0.166550676449230   0.711583127372909   1.0
H6   H   0.708650703381133   0.416500071507203   0.485489986401092   1.0
H7   H   0.343854057978284   0.135951050213754   0.696689535579710   1.0
H8   H   0.525888071433785   0.748049957157613   0.576243795300165   1.0
H9   H   0.473999518607372   0.885408227290337   0.242350718967107   1.0
H10   H   0.600200859495755   0.249403638164951   0.210060057101614   1.0
H11   H   0.700982320762066   0.894410677898449   0.250794920001791   1.0
H12   H   0.347393051991355   0.326689673243182   0.478536082853671   1.0
H13   H   0.261064904606296   0.959714988429850   0.545408914678506   1.0
Br14   Br   0.375564208068234   0.462161056833302   0.939454961698402   1.0
Br15   Br   0.940606519406846   0.831532920598416   0.890023155955476   1.0
Br16   Br   0.095424671026044   0.660183745533721   0.387844829843697   1.0
N17   N   0.362971733907781   0.112270496295973   0.559017034579863   1.0
Ge18   Ge   0.050199812879541   0.359567985392576   0.102936402358489   1.0




# HOIP entry ID:                    0237
# Khazana ID:                       2087
# Organic cation source:            C.C.Stoumpos et al., J. Am. Chem. Soc. 137, 6804 (2015)
# Label:                            Isopropylammonium Germanium Bromide
# Material class:                   Hybrid organic-inorganic perovskite ( MC_ino )
# Geometry class:                   Bulk crystalline materials ( GC_cry )
# Organic cation chemical formula:  (CH3)2CHNH3
# Number of atom types:             5
# Total number of atoms:            18
# Atom types:                       C H N  Ge Br
# Number of each atom:              3 10 1  1 3
# Bandgap, HSE06 (eV):              3.99
# Bandgap, GGA (eV):                3.0446
# Kpoint for VBM:                   0.2, 0.2222, 0.25
# Kpoint for CBM:                   0, 0, 0.4167
# Dielectric constant, electronic:  3.3627
# Dielectric constant, ionic:       3.3817
# Dielectric constant, total:       6.7444
# Refractive index:                 1.8338
# Atomization energy (eV/atom):     -4.4019
# Relative energy1 (eV/atom):       0.0971
# Relative energy2 (eV/atom):       0.2366
# Volume of the unit cell (A^3):    241.93
# Density (g/cm^3):                 2.5482
# Tool:                             VASP
# Pseudopotential:                  PAW
# Note:                             ENCUT=400eV, k-spacing_relax=0.20/Angstrom, k-spacing_bandgap=0.15/Angstrom
# Created by:                       C.Kim, T.D.Huan, S.Krishnan, R. Ramprasad