data_1
_audit_creation_method   'Generated by vasp2cif'
_cell_length_a    6.18882632363
_cell_length_b    6.10223411833
_cell_length_c    6.06896630399
_cell_angle_alpha    80.172872476
_cell_angle_beta    102.085967422
_cell_angle_gamma    98.4554994032

_symmetry_space_group_name_H-M    'P 1'
loop_
_atom_site_label
_atom_site_type_symbol
_atom_site_fract_x
_atom_site_fract_y
_atom_site_fract_z
_atom_site_occupancy
Br1   Br   0.480278467046859   0.918911781419921   0.996574791318977   1.0
Br2   Br   0.996048438340540   0.940995503950793   0.464292305324274   1.0
Br3   Br   0.951717808199887   0.434056635740176   0.963929979273241   1.0
H4   H   0.515266411235845   0.674402391611282   0.375289544913944   1.0
H5   H   0.720096297674241   0.387734755949095   0.315863992846831   1.0
H6   H   0.668061332357366   0.563085929007658   0.617146891069114   1.0
H7   H   0.180909042090266   0.446735769333619   0.472649642505176   1.0
H8   H   0.349132536901150   0.330205163212984   0.730928966374678   1.0
H9   H   0.312191192729517   0.621277286107363   0.683556743489180   1.0
H10   H   0.425545620058343   0.322998383711165   0.236672013204697   1.0
H11   H   0.570699205070569   0.191314610295053   0.501640158625389   1.0
C12   C   0.325944865830736   0.478651055648181   0.604511230688629   1.0
C13   C   0.564460137775230   0.343358821850903   0.377894831560704   1.0
Ge14   Ge   0.914025839196547   0.991598197769485   0.028241618051423   1.0
N15   N   0.528526705595912   0.531161501199748   0.494300222943792   1.0




# HOIP entry ID:                    0239
# Khazana ID:                       2089
# Organic cation source:            B.Saparov et al., Chem. Rev. 116, 4558 (2016)
# Label:                            Dimethylammonium Germanium Bromide
# Material class:                   Hybrid organic-inorganic perovskite ( MC_ino )
# Geometry class:                   Bulk crystalline materials ( GC_cry )
# Organic cation chemical formula:  (CH3)2NH2
# Number of atom types:             5
# Total number of atoms:            15
# Atom types:                       C H N  Ge Br
# Number of each atom:              2 8 1  1 3
# Bandgap, HSE06 (eV):              3.143
# Bandgap, GGA (eV):                2.352
# Kpoint for VBM:                   0.5, 0.5, 0.5
# Kpoint for CBM:                   0.4211, 0.5, 0.4211
# Dielectric constant, electronic:  3.6423
# Dielectric constant, ionic:       3.1623
# Dielectric constant, total:       6.8046
# Refractive index:                 1.9085
# Atomization energy (eV/atom):     -4.2586
# Relative energy1 (eV/atom):       0.1607
# Relative energy2 (eV/atom):       0.328
# Volume of the unit cell (A^3):    219.35
# Density (g/cm^3):                 2.7043
# Tool:                             VASP
# Pseudopotential:                  PAW
# Note:                             ENCUT=400eV, k-spacing_relax=0.20/Angstrom, k-spacing_bandgap=0.15/Angstrom
# Created by:                       C.Kim, T.D.Huan, S.Krishnan, R. Ramprasad