data_1
_audit_creation_method   'Generated by vasp2cif'
_cell_length_a    6.13219180306
_cell_length_b    6.16242535495
_cell_length_c    6.0911690037
_cell_angle_alpha    80.8002164403
_cell_angle_beta    102.291211052
_cell_angle_gamma    99.7725282351

_symmetry_space_group_name_H-M    'P 1'
loop_
_atom_site_label
_atom_site_type_symbol
_atom_site_fract_x
_atom_site_fract_y
_atom_site_fract_z
_atom_site_occupancy
Br1   Br   0.459713668895624   0.948346246693731   0.956733425232407   1.0
Br2   Br   0.940193492083864   0.946935289135006   0.471874709654763   1.0
Br3   Br   0.950068952199885   0.447215875244673   0.979037690829507   1.0
H4   H   0.393214210688278   0.638214648937783   0.284909775346129   1.0
H5   H   0.662653450311218   0.399894287641857   0.273046113455052   1.0
H6   H   0.606533229313548   0.658245020537564   0.499146680461052   1.0
H7   H   0.155939445194384   0.393037841343130   0.523343346201145   1.0
H8   H   0.388059081469670   0.417115402497849   0.756442071330405   1.0
H9   H   0.257594610883139   0.656153357666625   0.623889519286919   1.0
H10   H   0.393537363591704   0.244921154725759   0.301939343247192   1.0
H11   H   0.616836399321230   0.259176979924980   0.543700227941862   1.0
C12   C   0.303341117961409   0.500936599018111   0.598131994150705   1.0
C13   C   0.540871054628781   0.347802403513079   0.384325411138420   1.0
Ge14   Ge   0.896397342211749   0.011827512093362   0.030588507952558   1.0
N15   N   0.465439871783019   0.551967188615961   0.435422077367633   1.0




# HOIP entry ID:                    0240
# Khazana ID:                       2090
# Organic cation source:            B.Saparov et al., Chem. Rev. 116, 4558 (2016)
# Label:                            Dimethylammonium Germanium Bromide
# Material class:                   Hybrid organic-inorganic perovskite ( MC_ino )
# Geometry class:                   Bulk crystalline materials ( GC_cry )
# Organic cation chemical formula:  (CH3)2NH2
# Number of atom types:             5
# Total number of atoms:            15
# Atom types:                       C H N  Ge Br
# Number of each atom:              2 8 1  1 3
# Bandgap, HSE06 (eV):              3.1692
# Bandgap, GGA (eV):                2.3829
# Kpoint for VBM:                   0.5, 0.5, 0.5
# Kpoint for CBM:                   0.4211, 0.5, 0.4211
# Dielectric constant, electronic:  3.6494
# Dielectric constant, ionic:       2.8979
# Dielectric constant, total:       6.5473
# Refractive index:                 1.9104
# Atomization energy (eV/atom):     -4.2569
# Relative energy1 (eV/atom):       0.1623
# Relative energy2 (eV/atom):       0.3297
# Volume of the unit cell (A^3):    219.8
# Density (g/cm^3):                 2.6987
# Tool:                             VASP
# Pseudopotential:                  PAW
# Note:                             ENCUT=400eV, k-spacing_relax=0.20/Angstrom, k-spacing_bandgap=0.15/Angstrom
# Created by:                       C.Kim, T.D.Huan, S.Krishnan, R. Ramprasad