data_1
_audit_creation_method   'Generated by vasp2cif'
_cell_length_a    6.20887280921
_cell_length_b    6.11873741185
_cell_length_c    6.0511804617
_cell_angle_alpha    79.1378483867
_cell_angle_beta    101.59227854
_cell_angle_gamma    98.6390824546

_symmetry_space_group_name_H-M    'P 1'
loop_
_atom_site_label
_atom_site_type_symbol
_atom_site_fract_x
_atom_site_fract_y
_atom_site_fract_z
_atom_site_occupancy
Br1   Br   0.473922968864613   0.930007449678151   0.995533241539277   1.0
Br2   Br   0.982215873186085   0.953803535601374   0.468164586680025   1.0
Br3   Br   0.942507391073448   0.444709785174837   0.958386565357557   1.0
H4   H   0.527886368928286   0.672066001291881   0.368039009484185   1.0
H5   H   0.682909700688903   0.359291343165602   0.294346263268387   1.0
H6   H   0.668306982281216   0.538790162922012   0.606976036261841   1.0
H7   H   0.178155593673239   0.485630791167445   0.470275293066336   1.0
H8   H   0.332773853078422   0.345522099869015   0.726066240132603   1.0
H9   H   0.334959069427875   0.643550345235923   0.682132371605917   1.0
H10   H   0.387325360878172   0.332014697362418   0.224675898603898   1.0
H11   H   0.520893132242051   0.177751257251700   0.484536525636919   1.0
C12   C   0.326635363289761   0.498234355679102   0.600387217361991   1.0
C13   C   0.530110062252639   0.332964775020976   0.362496870514612   1.0
Ge14   Ge   0.906536167794115   0.002148103632741   0.030148667427312   1.0
N15   N   0.525662272151045   0.525015810986027   0.485207075515476   1.0




# HOIP entry ID:                    0241
# Khazana ID:                       2091
# Organic cation source:            B.Saparov et al., Chem. Rev. 116, 4558 (2016)
# Label:                            Dimethylammonium Germanium Bromide
# Material class:                   Hybrid organic-inorganic perovskite ( MC_ino )
# Geometry class:                   Bulk crystalline materials ( GC_cry )
# Organic cation chemical formula:  (CH3)2NH2
# Number of atom types:             5
# Total number of atoms:            15
# Atom types:                       C H N  Ge Br
# Number of each atom:              2 8 1  1 3
# Bandgap, HSE06 (eV):              3.1659
# Bandgap, GGA (eV):                2.3786
# Kpoint for VBM:                   0.5, 0.5, 0.5
# Kpoint for CBM:                   0.5, 0.5, 0.3947
# Dielectric constant, electronic:  3.6301
# Dielectric constant, ionic:       2.7673
# Dielectric constant, total:       6.3974
# Refractive index:                 1.9053
# Atomization energy (eV/atom):     -4.259
# Relative energy1 (eV/atom):       0.1603
# Relative energy2 (eV/atom):       0.3277
# Volume of the unit cell (A^3):    219.65
# Density (g/cm^3):                 2.7006
# Tool:                             VASP
# Pseudopotential:                  PAW
# Note:                             ENCUT=400eV, k-spacing_relax=0.20/Angstrom, k-spacing_bandgap=0.15/Angstrom
# Created by:                       C.Kim, T.D.Huan, S.Krishnan, R. Ramprasad