data_1
_audit_creation_method   'Generated by vasp2cif'
_cell_length_a    6.19260709241
_cell_length_b    6.03338383992
_cell_length_c    6.05813978787
_cell_angle_alpha    87.0203045006
_cell_angle_beta    84.3107455631
_cell_angle_gamma    76.5177093771

_symmetry_space_group_name_H-M    'P 1'
loop_
_atom_site_label
_atom_site_type_symbol
_atom_site_fract_x
_atom_site_fract_y
_atom_site_fract_z
_atom_site_occupancy
Br1   Br   0.060273307649304   0.970319915523305   0.534898511556896   1.0
Br2   Br   0.583871248099292   0.021237654243109   0.011184064531825   1.0
Br3   Br   0.986852577624823   0.414959726159395   0.010259357603154   1.0
H4   H   0.401387022993397   0.689366873497221   0.338154397560821   1.0
H5   H   0.277244064231844   0.340178097349010   0.352039809377970   1.0
H6   H   0.608902199295784   0.481643393201992   0.235422439369650   1.0
H7   H   0.559687972916613   0.661573464022695   0.689040756095395   1.0
H8   H   0.783395691331620   0.439793052580093   0.577634164920923   1.0
H9   H   0.745954360923889   0.723885304776196   0.462556065682556   1.0
H10   H   0.284526783722065   0.437761276580822   0.624624579567040   1.0
H11   H   0.503088919771493   0.211262907242748   0.513967824545873   1.0
C12   C   0.662529157199344   0.595898678396281   0.539688057240312   1.0
C13   C   0.383682770560426   0.368315871646921   0.474818613105818   1.0
Ge14   Ge   0.010420030190439   0.976820801523210   0.970972712645001   1.0
N15   N   0.512453893489692   0.540502983256943   0.379278646196838   1.0




# HOIP entry ID:                    0242
# Khazana ID:                       2092
# Organic cation source:            B.Saparov et al., Chem. Rev. 116, 4558 (2016)
# Label:                            Dimethylammonium Germanium Bromide
# Material class:                   Hybrid organic-inorganic perovskite ( MC_ino )
# Geometry class:                   Bulk crystalline materials ( GC_cry )
# Organic cation chemical formula:  (CH3)2NH2
# Number of atom types:             5
# Total number of atoms:            15
# Atom types:                       C H N  Ge Br
# Number of each atom:              2 8 1  1 3
# Bandgap, HSE06 (eV):              2.9974
# Bandgap, GGA (eV):                2.1972
# Kpoint for VBM:                   0.5, 0.5, 0.5
# Kpoint for CBM:                   0.5, 0.5, 0.5
# Dielectric constant, electronic:  3.7166
# Dielectric constant, ionic:       3.7061
# Dielectric constant, total:       7.4227
# Refractive index:                 1.9278
# Atomization energy (eV/atom):     -4.2552
# Relative energy1 (eV/atom):       0.1641
# Relative energy2 (eV/atom):       0.3314
# Volume of the unit cell (A^3):    218.93
# Density (g/cm^3):                 2.7095
# Tool:                             VASP
# Pseudopotential:                  PAW
# Note:                             ENCUT=400eV, k-spacing_relax=0.20/Angstrom, k-spacing_bandgap=0.15/Angstrom
# Created by:                       C.Kim, T.D.Huan, S.Krishnan, R. Ramprasad