data_1
_audit_creation_method   'Generated by vasp2cif'
_cell_length_a    5.98301125542
_cell_length_b    4.23472294625
_cell_length_c    8.78741330483
_cell_angle_alpha    89.4404598841
_cell_angle_beta    80.0401880553
_cell_angle_gamma    87.7167312025

_symmetry_space_group_name_H-M    'P 1'
loop_
_atom_site_label
_atom_site_type_symbol
_atom_site_fract_x
_atom_site_fract_y
_atom_site_fract_z
_atom_site_occupancy
Br1   Br   0.997808351841527   0.103137339657735   0.808135693278821   1.0
Br2   Br   0.488007860011962   0.628156068330348   0.045668563624908   1.0
Br3   Br   0.891653423995969   0.100260280378521   0.286192514624872   1.0
H4   H   0.207523729083050   0.356832498597768   0.526784322625439   1.0
H5   H   0.608019600008014   0.428621476566903   0.416439347847444   1.0
H6   H   0.570141633487928   0.811072971282123   0.414566400677593   1.0
H7   H   0.506930046652940   0.405402550547336   0.697354733697694   1.0
H8   H   0.739640813574198   0.653869071695418   0.632515234470198   1.0
H9   H   0.460713220569744   0.822911229368238   0.698568721393762   1.0
H10   H   0.248836161741032   0.557924167249865   0.344015473615585   1.0
H11   H   0.163986690891328   0.774576278638058   0.519964568302690   1.0
C12   C   0.558352956663626   0.625047585706731   0.638191858013812   1.0
C13   C   0.263050838557334   0.572110273835975   0.465269666708764   1.0
Ge14   Ge   0.915482674355104   0.589110896165842   0.030710119218398   1.0
N15   N   0.509261998566274   0.612167311978951   0.475372781899992   1.0




# HOIP entry ID:                    0243
# Khazana ID:                       2093
# Organic cation source:            B.Saparov et al., Chem. Rev. 116, 4558 (2016)
# Label:                            Dimethylammonium Germanium Bromide
# Material class:                   Hybrid organic-inorganic perovskite ( MC_ino )
# Geometry class:                   Bulk crystalline materials ( GC_cry )
# Organic cation chemical formula:  (CH3)2NH2
# Number of atom types:             5
# Total number of atoms:            15
# Atom types:                       C H N  Ge Br
# Number of each atom:              2 8 1  1 3
# Bandgap, HSE06 (eV):              3.5938
# Bandgap, GGA (eV):                2.7286
# Kpoint for VBM:                   0.5, 0.1667, 0.5
# Kpoint for CBM:                   -0.4286, 0, 0.375
# Dielectric constant, electronic:  3.6945
# Dielectric constant, ionic:       25.2662
# Dielectric constant, total:       28.9607
# Refractive index:                 1.9221
# Atomization energy (eV/atom):     -4.243
# Relative energy1 (eV/atom):       0.1763
# Relative energy2 (eV/atom):       0.3437
# Volume of the unit cell (A^3):    219.11
# Density (g/cm^3):                 2.7072
# Tool:                             VASP
# Pseudopotential:                  PAW
# Note:                             ENCUT=400eV, k-spacing_relax=0.20/Angstrom, k-spacing_bandgap=0.15/Angstrom
# Created by:                       C.Kim, T.D.Huan, S.Krishnan, R. Ramprasad