data_1
_audit_creation_method   'Generated by vasp2cif'
_cell_length_a    6.10971157398
_cell_length_b    4.2394541704
_cell_length_c    8.50696800431
_cell_angle_alpha    91.4858132145
_cell_angle_beta    81.8129759565
_cell_angle_gamma    97.6519858766

_symmetry_space_group_name_H-M    'P 1'
loop_
_atom_site_label
_atom_site_type_symbol
_atom_site_fract_x
_atom_site_fract_y
_atom_site_fract_z
_atom_site_occupancy
Br1   Br   0.045481863258907   0.122254568820743   0.188854778120522   1.0
Br2   Br   0.530991121162721   0.708693854795371   0.940157555230464   1.0
Br3   Br   0.118425039377598   0.108460227614714   0.700054736831504   1.0
H4   H   0.732248293327196   0.308852667945672   0.444172607382228   1.0
H5   H   0.388645606917109   0.487008825625409   0.584430419541562   1.0
H6   H   0.517513977824066   0.848155456565379   0.599958455643446   1.0
H7   H   0.447559111994941   0.493158028043574   0.299593164613611   1.0
H8   H   0.308815097456851   0.819130210876466   0.379188791996867   1.0
H9   H   0.600963869437876   0.880150992532023   0.303536206991886   1.0
H10   H   0.748358220299018   0.443908209612609   0.645166677319764   1.0
H11   H   0.871788626785097   0.692326298056720   0.480983865783003   1.0
C12   C   0.464857619387679   0.717138830153083   0.365185289475420   1.0
C13   C   0.734284529828955   0.512040431844682   0.525058232883254   1.0
Ge14   Ge   0.106640155202726   0.601383926432810   0.959667514254818   1.0
N15   N   0.518186867739274   0.648737471080842   0.528041703931592   1.0




# HOIP entry ID:                    0244
# Khazana ID:                       2094
# Organic cation source:            B.Saparov et al., Chem. Rev. 116, 4558 (2016)
# Label:                            Dimethylammonium Germanium Bromide
# Material class:                   Hybrid organic-inorganic perovskite ( MC_ino )
# Geometry class:                   Bulk crystalline materials ( GC_cry )
# Organic cation chemical formula:  (CH3)2NH2
# Number of atom types:             5
# Total number of atoms:            15
# Atom types:                       C H N  Ge Br
# Number of each atom:              2 8 1  1 3
# Bandgap, HSE06 (eV):              3.6764
# Bandgap, GGA (eV):                2.7909
# Kpoint for VBM:                   0.5, 0.1667, 0.5
# Kpoint for CBM:                   0.4167, 0, 0.4
# Dielectric constant, electronic:  3.6905
# Dielectric constant, ionic:       33.7914
# Dielectric constant, total:       37.4819
# Refractive index:                 1.9211
# Atomization energy (eV/atom):     -4.2442
# Relative energy1 (eV/atom):       0.1751
# Relative energy2 (eV/atom):       0.3425
# Volume of the unit cell (A^3):    216.15
# Density (g/cm^3):                 2.7443
# Tool:                             VASP
# Pseudopotential:                  PAW
# Note:                             ENCUT=400eV, k-spacing_relax=0.20/Angstrom, k-spacing_bandgap=0.15/Angstrom
# Created by:                       C.Kim, T.D.Huan, S.Krishnan, R. Ramprasad