data_1
_audit_creation_method   'Generated by vasp2cif'
_cell_length_a    6.22569471679
_cell_length_b    4.29662301826
_cell_length_c    8.30510933417
_cell_angle_alpha    91.2001359457
_cell_angle_beta    82.1669437416
_cell_angle_gamma    97.7626881331

_symmetry_space_group_name_H-M    'P 1'
loop_
_atom_site_label
_atom_site_type_symbol
_atom_site_fract_x
_atom_site_fract_y
_atom_site_fract_z
_atom_site_occupancy
Br1   Br   0.041901926077813   0.106237726970171   0.183165554010472   1.0
Br2   Br   0.518740580930590   0.758000457825418   0.925171779160607   1.0
Br3   Br   0.102924383088663   0.070287421938311   0.680658562877852   1.0
H4   H   0.709463563538186   0.257637298101791   0.437257979204823   1.0
H5   H   0.372240723683788   0.450501430187963   0.570759058418936   1.0
H6   H   0.510389455337879   0.797098005413261   0.593765042251725   1.0
H7   H   0.446041841334584   0.465390431787000   0.280645668767683   1.0
H8   H   0.326829847616615   0.803380985836512   0.356861984544374   1.0
H9   H   0.616110777768242   0.831580253285686   0.290960353695752   1.0
H10   H   0.708087068248219   0.367646031886267   0.647953677107694   1.0
H11   H   0.853064324802261   0.622673154729938   0.490719976179669   1.0
C12   C   0.471484924073401   0.683731129170440   0.348722863372935   1.0
C13   C   0.710000420343903   0.449906600671163   0.524652693666695   1.0
Ge14   Ge   0.099253105474986   0.673763322219024   0.947573770718094   1.0
N15   N   0.507067057680885   0.603175749977112   0.518501036022698   1.0




# HOIP entry ID:                    0245
# Khazana ID:                       2095
# Organic cation source:            B.Saparov et al., Chem. Rev. 116, 4558 (2016)
# Label:                            Dimethylammonium Germanium Bromide
# Material class:                   Hybrid organic-inorganic perovskite ( MC_ino )
# Geometry class:                   Bulk crystalline materials ( GC_cry )
# Organic cation chemical formula:  (CH3)2NH2
# Number of atom types:             5
# Total number of atoms:            15
# Atom types:                       C H N  Ge Br
# Number of each atom:              2 8 1  1 3
# Bandgap, HSE06 (eV):              3.9367
# Bandgap, GGA (eV):                2.9868
# Kpoint for VBM:                   -0.3333, 0.1667, 0.5
# Kpoint for CBM:                   0.4167, 0, 0.4
# Dielectric constant, electronic:  3.5667
# Dielectric constant, ionic:       4.4497
# Dielectric constant, total:       8.0164
# Refractive index:                 1.8886
# Atomization energy (eV/atom):     -4.2463
# Relative energy1 (eV/atom):       0.173
# Relative energy2 (eV/atom):       0.3403
# Volume of the unit cell (A^3):    218.07
# Density (g/cm^3):                 2.7201
# Tool:                             VASP
# Pseudopotential:                  PAW
# Note:                             ENCUT=400eV, k-spacing_relax=0.20/Angstrom, k-spacing_bandgap=0.15/Angstrom
# Created by:                       C.Kim, T.D.Huan, S.Krishnan, R. Ramprasad