data_1
_audit_creation_method   'Generated by vasp2cif'
_cell_length_a    8.14414002521
_cell_length_b    4.34428910015
_cell_length_c    7.17232470275
_cell_angle_alpha    120.269008732
_cell_angle_beta    92.8877321761
_cell_angle_gamma    94.3464326745

_symmetry_space_group_name_H-M    'P 1'
loop_
_atom_site_label
_atom_site_type_symbol
_atom_site_fract_x
_atom_site_fract_y
_atom_site_fract_z
_atom_site_occupancy
Br1   Br   0.183081638985918   0.111886060556807   0.950644683438690   1.0
Br2   Br   0.928403737222379   0.288397202175548   0.470856387835302   1.0
Br3   Br   0.668863792167821   0.958206034850316   0.891705238227814   1.0
H4   H   0.453373754509169   0.509928957030171   0.291745014834268   1.0
H5   H   0.547897647544223   0.070114841640017   0.634898348288534   1.0
H6   H   0.594133208074650   0.272906103714265   0.500855024557942   1.0
H7   H   0.258341373755537   0.951455503255373   0.507387307383357   1.0
H8   H   0.328081928342544   0.418358610319877   0.630916421398401   1.0
H9   H   0.299154109822851   0.137131299569703   0.340061784443389   1.0
H10   H   0.669863268906392   0.668901006070850   0.325668673955620   1.0
H11   H   0.525320482489893   0.732454489178682   0.155647272228540   1.0
C12   C   0.336066058854807   0.151846096644171   0.492661749479681   1.0
C13   C   0.543403791599724   0.717096853098019   0.302019730392703   1.0
Ge14   Ge   0.943219633143565   0.612351579782779   0.888327093555712   1.0
N15   N   0.513355574580429   0.071485362113404   0.493645269979970   1.0




# HOIP entry ID:                    0246
# Khazana ID:                       2096
# Organic cation source:            B.Saparov et al., Chem. Rev. 116, 4558 (2016)
# Label:                            Dimethylammonium Germanium Bromide
# Material class:                   Hybrid organic-inorganic perovskite ( MC_ino )
# Geometry class:                   Bulk crystalline materials ( GC_cry )
# Organic cation chemical formula:  (CH3)2NH2
# Number of atom types:             5
# Total number of atoms:            15
# Atom types:                       C H N  Ge Br
# Number of each atom:              2 8 1  1 3
# Bandgap, HSE06 (eV):              4.0127
# Bandgap, GGA (eV):                3.0292
# Kpoint for VBM:                   -0.4, 0.15, 0.0625
# Kpoint for CBM:                   0.5, 0, 0.5
# Dielectric constant, electronic:  3.5445
# Dielectric constant, ionic:       3.3441
# Dielectric constant, total:       6.8887
# Refractive index:                 1.8827
# Atomization energy (eV/atom):     -4.2469
# Relative energy1 (eV/atom):       0.1724
# Relative energy2 (eV/atom):       0.3397
# Volume of the unit cell (A^3):    217.38
# Density (g/cm^3):                 2.7288
# Tool:                             VASP
# Pseudopotential:                  PAW
# Note:                             ENCUT=400eV, k-spacing_relax=0.20/Angstrom, k-spacing_bandgap=0.15/Angstrom
# Created by:                       C.Kim, T.D.Huan, S.Krishnan, R. Ramprasad