data_1
_audit_creation_method   'Generated by vasp2cif'
_cell_length_a    6.27163764453
_cell_length_b    4.46748859218
_cell_length_c    7.88850666143
_cell_angle_alpha    80.2555674978
_cell_angle_beta    85.4202392897
_cell_angle_gamma    82.7928163292

_symmetry_space_group_name_H-M    'P 1'
loop_
_atom_site_label
_atom_site_type_symbol
_atom_site_fract_x
_atom_site_fract_y
_atom_site_fract_z
_atom_site_occupancy
Br1   Br   0.962758129980003   0.180183071670378   0.808377442167277   1.0
Br2   Br   0.485307841139836   0.816259034041344   0.056834358268951   1.0
Br3   Br   0.906992322049845   0.995831743871818   0.339029224672075   1.0
H4   H   0.311832721317558   0.132055877694000   0.536703082514606   1.0
H5   H   0.656802198824629   0.353278468915583   0.482116551447234   1.0
H6   H   0.528941669307635   0.680907653698569   0.397570415374425   1.0
H7   H   0.479118568080359   0.366120716176759   0.761529939188456   1.0
H8   H   0.591085917456880   0.715697091149927   0.686797762204570   1.0
H9   H   0.307483494959634   0.697074763291198   0.676109773446868   1.0
H10   H   0.386865314616408   0.253978039311342   0.312527237541019   1.0
H11   H   0.189775862523177   0.482956675953879   0.426578704549840   1.0
C12   C   0.468504768665532   0.574787764745807   0.667198560230297   1.0
C13   C   0.336639229894118   0.324959011080445   0.436354274065827   1.0
Ge14   Ge   0.901383509179404   0.720455876868598   0.054342030779715   1.0
N15   N   0.510732147559622   0.489506064963884   0.489041787667915   1.0




# HOIP entry ID:                    0247
# Khazana ID:                       2097
# Organic cation source:            B.Saparov et al., Chem. Rev. 116, 4558 (2016)
# Label:                            Dimethylammonium Germanium Bromide
# Material class:                   Hybrid organic-inorganic perovskite ( MC_ino )
# Geometry class:                   Bulk crystalline materials ( GC_cry )
# Organic cation chemical formula:  (CH3)2NH2
# Number of atom types:             5
# Total number of atoms:            15
# Atom types:                       C H N  Ge Br
# Number of each atom:              2 8 1  1 3
# Bandgap, HSE06 (eV):              4.0611
# Bandgap, GGA (eV):                3.0853
# Kpoint for VBM:                   0.1667, 0.2778, 0.3
# Kpoint for CBM:                   -0.4167, 0, 0.4
# Dielectric constant, electronic:  3.5421
# Dielectric constant, ionic:       3.877
# Dielectric constant, total:       7.419
# Refractive index:                 1.882
# Atomization energy (eV/atom):     -4.2477
# Relative energy1 (eV/atom):       0.1716
# Relative energy2 (eV/atom):       0.339
# Volume of the unit cell (A^3):    215.73
# Density (g/cm^3):                 2.7497
# Tool:                             VASP
# Pseudopotential:                  PAW
# Note:                             ENCUT=400eV, k-spacing_relax=0.20/Angstrom, k-spacing_bandgap=0.15/Angstrom
# Created by:                       C.Kim, T.D.Huan, S.Krishnan, R. Ramprasad