data_1
_audit_creation_method   'Generated by vasp2cif'
_cell_length_a    6.10626434348
_cell_length_b    6.21723661656
_cell_length_c    6.22070808975
_cell_angle_alpha    90.2559236155
_cell_angle_beta    102.064554999
_cell_angle_gamma    78.917811185

_symmetry_space_group_name_H-M    'P 1'
loop_
_atom_site_label
_atom_site_type_symbol
_atom_site_fract_x
_atom_site_fract_y
_atom_site_fract_z
_atom_site_occupancy
C1   C   0.365782194484957   0.406115913307744   0.594009159818995   1.0
C2   C   0.511280308842380   0.521194284572950   0.486762340311117   1.0
H3   H   0.685659145800173   0.508175496762817   0.235385755682749   1.0
H4   H   0.671780764344085   0.785589067923006   0.509541011508276   1.0
H5   H   0.358031339618961   0.244476329484961   0.528085982771884   1.0
H6   H   0.192380130579664   0.504024735187087   0.566599570767728   1.0
H7   H   0.433664609117905   0.388754604486429   0.771525961446613   1.0
H8   H   0.518750111185156   0.761822823532562   0.710005098524967   1.0
H9   H   0.543410029374172   0.295297587740372   0.251767623761886   1.0
Br10   Br   0.992484615787141   0.993602026992214   0.569087768745632   1.0
Br11   Br   0.997086906910546   0.441007910374395   0.011086675198186   1.0
Br12   Br   0.509766641653421   0.957670361723146   0.053004884381004   1.0
N13   N   0.581377770630162   0.439570522687767   0.310612088134185   1.0
N14   N   0.565209864632180   0.705358429287109   0.569223077473936   1.0
Ge15   Ge   0.058275567039189   0.017619905937430   0.993183001472822   1.0




# HOIP entry ID:                    0248
# Khazana ID:                       2098
# Organic cation source:            C.C.Stoumpos et al., J. Am. Chem. Soc. 137, 6804 (2015)
# Label:                            Acetamidinium Germanium Bromide
# Material class:                   Hybrid organic-inorganic perovskite ( MC_ino )
# Geometry class:                   Bulk crystalline materials ( GC_cry )
# Organic cation chemical formula:  CH3C(NH2)2
# Number of atom types:             5
# Total number of atoms:            15
# Atom types:                       C H N  Ge Br
# Number of each atom:              2 7 2  1 3
# Bandgap, HSE06 (eV):              3.1156
# Bandgap, GGA (eV):                2.3067
# Kpoint for VBM:                   0.5, 0.5, 0.5
# Kpoint for CBM:                   0.5, 0.5, 0.5
# Dielectric constant, electronic:  3.6302
# Dielectric constant, ionic:       2.7905
# Dielectric constant, total:       6.4207
# Refractive index:                 1.9053
# Atomization energy (eV/atom):     -4.5628
# Relative energy1 (eV/atom):       0.2826
# Relative energy2 (eV/atom):       0.4499
# Volume of the unit cell (A^3):    226.48
# Density (g/cm^3):                 2.7144
# Tool:                             VASP
# Pseudopotential:                  PAW
# Note:                             ENCUT=400eV, k-spacing_relax=0.20/Angstrom, k-spacing_bandgap=0.15/Angstrom
# Created by:                       C.Kim, T.D.Huan, S.Krishnan, R. Ramprasad