data_1
_audit_creation_method   'Generated by vasp2cif'
_cell_length_a    6.09047277273
_cell_length_b    6.25477696824
_cell_length_c    6.25012073495
_cell_angle_alpha    90.1341030108
_cell_angle_beta    101.911716092
_cell_angle_gamma    102.209369621

_symmetry_space_group_name_H-M    'P 1'
loop_
_atom_site_label
_atom_site_type_symbol
_atom_site_fract_x
_atom_site_fract_y
_atom_site_fract_z
_atom_site_occupancy
C1   C   0.637988991144447   0.506157617708404   0.519893504843772   1.0
C2   C   0.501534931893872   0.621078462543295   0.636496569222153   1.0
H3   H   0.335953090613948   0.601478729987313   0.894282802116500   1.0
H4   H   0.331899738422550   0.874808707203719   0.619963648672730   1.0
H5   H   0.764890804214701   0.441607802933469   0.636537872144523   1.0
H6   H   0.725901366443232   0.615187360601318   0.413525514203094   1.0
H7   H   0.520621456404442   0.368265083419459   0.419214593297262   1.0
H8   H   0.479074854826727   0.857023552404534   0.413889335661281   1.0
H9   H   0.486375246721138   0.399339898442378   0.874286852947819   1.0
Br10   Br   0.015631319345637   0.092112716195935   0.545932469181857   1.0
Br11   Br   0.017983492490543   0.528206762609003   0.108703493355982   1.0
Br12   Br   0.487264521612452   0.053010809923542   0.069348795812090   1.0
N13   N   0.442661060503696   0.539984612067080   0.817145919186942   1.0
N14   N   0.437702029819945   0.799086699423498   0.555529427553424   1.0
Ge15   Ge   0.941587095542637   0.106701184536931   0.124259201800598   1.0




# HOIP entry ID:                    0249
# Khazana ID:                       2099
# Organic cation source:            C.C.Stoumpos et al., J. Am. Chem. Soc. 137, 6804 (2015)
# Label:                            Acetamidinium Germanium Bromide
# Material class:                   Hybrid organic-inorganic perovskite ( MC_ino )
# Geometry class:                   Bulk crystalline materials ( GC_cry )
# Organic cation chemical formula:  CH3C(NH2)2
# Number of atom types:             5
# Total number of atoms:            15
# Atom types:                       C H N  Ge Br
# Number of each atom:              2 7 2  1 3
# Bandgap, HSE06 (eV):              3.1911
# Bandgap, GGA (eV):                2.3849
# Kpoint for VBM:                   0.5, 0.5, 0.5
# Kpoint for CBM:                   0.5, 0.5, 0.5
# Dielectric constant, electronic:  3.6113
# Dielectric constant, ionic:       2.7496
# Dielectric constant, total:       6.361
# Refractive index:                 1.9004
# Atomization energy (eV/atom):     -4.5631
# Relative energy1 (eV/atom):       0.2822
# Relative energy2 (eV/atom):       0.4496
# Volume of the unit cell (A^3):    227.44
# Density (g/cm^3):                 2.703
# Tool:                             VASP
# Pseudopotential:                  PAW
# Note:                             ENCUT=400eV, k-spacing_relax=0.20/Angstrom, k-spacing_bandgap=0.15/Angstrom
# Created by:                       C.Kim, T.D.Huan, S.Krishnan, R. Ramprasad