data_1
_audit_creation_method   'Generated by vasp2cif'
_cell_length_a    6.12735610145
_cell_length_b    6.27184799884
_cell_length_c    5.99829939444
_cell_angle_alpha    84.3678252457
_cell_angle_beta    101.541657007
_cell_angle_gamma    90.4665507191

_symmetry_space_group_name_H-M    'P 1'
loop_
_atom_site_label
_atom_site_type_symbol
_atom_site_fract_x
_atom_site_fract_y
_atom_site_fract_z
_atom_site_occupancy
C1   C   0.577508617280806   0.462651239274862   0.426931611808122   1.0
C2   C   0.509250248601916   0.625331487243081   0.566895573632884   1.0
H3   H   0.304821171838192   0.682289875233018   0.790191309304319   1.0
H4   H   0.578593637034260   0.924631892333814   0.671546907858954   1.0
H5   H   0.600772901361317   0.538657100703801   0.261676866263805   1.0
H6   H   0.454510412958314   0.336737950031676   0.400652997345581   1.0
H7   H   0.737189961719608   0.389959200552987   0.516435861624920   1.0
H8   H   0.727616763444999   0.846951623549472   0.475189913743890   1.0
H9   H   0.279396657816093   0.434129288194463   0.682987869957969   1.0
Br10   Br   0.087770425192630   0.090634300990658   0.541891229933697   1.0
Br11   Br   0.036070703689440   0.659331927072181   0.096199274125418   1.0
Br12   Br   0.600525208095220   0.104819603200866   0.018316100696858   1.0
N13   N   0.358647949153756   0.576784187045632   0.693993336130518   1.0
N14   N   0.605300565669260   0.815055697559742   0.564640877218132   1.0
Ge15   Ge   0.030724776144154   0.072284627013744   0.092310270354922   1.0




# HOIP entry ID:                    0250
# Khazana ID:                       2100
# Organic cation source:            C.C.Stoumpos et al., J. Am. Chem. Soc. 137, 6804 (2015)
# Label:                            Acetamidinium Germanium Bromide
# Material class:                   Hybrid organic-inorganic perovskite ( MC_ino )
# Geometry class:                   Bulk crystalline materials ( GC_cry )
# Organic cation chemical formula:  CH3C(NH2)2
# Number of atom types:             5
# Total number of atoms:            15
# Atom types:                       C H N  Ge Br
# Number of each atom:              2 7 2  1 3
# Bandgap, HSE06 (eV):              2.9861
# Bandgap, GGA (eV):                2.2149
# Kpoint for VBM:                   0.5, 0.5, 0.5
# Kpoint for CBM:                   0.5, 0.5, 0.5
# Dielectric constant, electronic:  3.7212
# Dielectric constant, ionic:       3.8556
# Dielectric constant, total:       7.5768
# Refractive index:                 1.929
# Atomization energy (eV/atom):     -4.5611
# Relative energy1 (eV/atom):       0.2843
# Relative energy2 (eV/atom):       0.4517
# Volume of the unit cell (A^3):    224.75
# Density (g/cm^3):                 2.7353
# Tool:                             VASP
# Pseudopotential:                  PAW
# Note:                             ENCUT=400eV, k-spacing_relax=0.20/Angstrom, k-spacing_bandgap=0.15/Angstrom
# Created by:                       C.Kim, T.D.Huan, S.Krishnan, R. Ramprasad