data_1
_audit_creation_method   'Generated by vasp2cif'
_cell_length_a    6.39485322838
_cell_length_b    4.22243854973
_cell_length_c    8.25405781999
_cell_angle_alpha    89.8699298865
_cell_angle_beta    96.7641578153
_cell_angle_gamma    102.370447978

_symmetry_space_group_name_H-M    'P 1'
loop_
_atom_site_label
_atom_site_type_symbol
_atom_site_fract_x
_atom_site_fract_y
_atom_site_fract_z
_atom_site_occupancy
C1   C   0.415627211029928   0.887349847730455   0.608341517869022   1.0
C2   C   0.540724280047364   0.828424699974128   0.473297426476208   1.0
H3   H   0.378208434850926   0.071304140780590   0.307291701793012   1.0
H4   H   0.574627204292007   0.904586742000326   0.230575760039301   1.0
H5   H   0.321306190609569   0.656338141849695   0.645213069882672   1.0
H6   H   0.525124350526710   0.995649272102199   0.715182807733740   1.0
H7   H   0.305439616122001   0.044529605285973   0.569377820581231   1.0
H8   H   0.784675783452371   0.612847783718294   0.415479312694089   1.0
H9   H   0.732573652960724   0.581628479585689   0.616031430072496   1.0
Br10   Br   0.586973896313843   0.516689308321816   0.999696389154288   1.0
Br11   Br   0.040170202371428   0.263751071918932   0.288414767689140   1.0
Br12   Br   0.004028248417853   0.234791149666023   0.782418847678102   1.0
N13   N   0.499713834237127   0.949052684813225   0.327888883584833   1.0
N14   N   0.690745399811988   0.653233596893628   0.501418820732901   1.0
Ge15   Ge   0.001311694956129   0.654123475358965   0.022801444018974   1.0




# HOIP entry ID:                    0251
# Khazana ID:                       2101
# Organic cation source:            C.C.Stoumpos et al., J. Am. Chem. Soc. 137, 6804 (2015)
# Label:                            Acetamidinium Germanium Bromide
# Material class:                   Hybrid organic-inorganic perovskite ( MC_ino )
# Geometry class:                   Bulk crystalline materials ( GC_cry )
# Organic cation chemical formula:  CH3C(NH2)2
# Number of atom types:             5
# Total number of atoms:            15
# Atom types:                       C H N  Ge Br
# Number of each atom:              2 7 2  1 3
# Bandgap, HSE06 (eV):              3.9754
# Bandgap, GGA (eV):                2.987
# Kpoint for VBM:                   -0.1667, 0.2, 0.5
# Kpoint for CBM:                   0.5, 0, 0.5
# Dielectric constant, electronic:  3.6745
# Dielectric constant, ionic:       3.7209
# Dielectric constant, total:       7.3954
# Refractive index:                 1.9169
# Atomization energy (eV/atom):     -4.5624
# Relative energy1 (eV/atom):       0.283
# Relative energy2 (eV/atom):       0.4503
# Volume of the unit cell (A^3):    216.12
# Density (g/cm^3):                 2.8446
# Tool:                             VASP
# Pseudopotential:                  PAW
# Note:                             ENCUT=400eV, k-spacing_relax=0.20/Angstrom, k-spacing_bandgap=0.15/Angstrom
# Created by:                       C.Kim, T.D.Huan, S.Krishnan, R. Ramprasad