data_1
_audit_creation_method   'Generated by vasp2cif'
_cell_length_a    6.44381022723
_cell_length_b    4.05902971427
_cell_length_c    9.04651244566
_cell_angle_alpha    108.064973919
_cell_angle_beta    77.9049991051
_cell_angle_gamma    91.5785229058

_symmetry_space_group_name_H-M    'P 1'
loop_
_atom_site_label
_atom_site_type_symbol
_atom_site_fract_x
_atom_site_fract_y
_atom_site_fract_z
_atom_site_occupancy
C1   C   0.460286485894628   0.541998427919800   0.654125485199238   1.0
C2   C   0.472635036671747   0.325471902590977   0.485166720358123   1.0
H3   H   0.345431596387222   0.249865470983103   0.286969570460670   1.0
H4   H   0.216805826790505   0.567705544240205   0.458984211923600   1.0
H5   H   0.430960207495488   0.377951678512517   0.731345276836670   1.0
H6   H   0.612578176965329   0.661235942717610   0.666237304849965   1.0
H7   H   0.335194737891094   0.744094377917328   0.692723253677961   1.0
H8   H   0.640071777000315   0.921631323565705   0.305066994709193   1.0
H9   H   0.733863930790683   0.050847134552448   0.481788293558310   1.0
Br10   Br   0.534957903783948   0.753627859860671   0.034750305688291   1.0
Br11   Br   0.991470996716579   0.406940933565089   0.168818668691941   1.0
Br12   Br   0.957070217160791   0.070311922991770   0.682816256959327   1.0
N13   N   0.337704584430391   0.387146489570064   0.403463208828782   1.0
N14   N   0.621843397564717   0.073514440586123   0.420450083582772   1.0
Ge15   Ge   0.938375124456556   0.733796550426575   0.945934364675118   1.0




# HOIP entry ID:                    0252
# Khazana ID:                       2102
# Organic cation source:            C.C.Stoumpos et al., J. Am. Chem. Soc. 137, 6804 (2015)
# Label:                            Acetamidinium Germanium Bromide
# Material class:                   Hybrid organic-inorganic perovskite ( MC_ino )
# Geometry class:                   Bulk crystalline materials ( GC_cry )
# Organic cation chemical formula:  CH3C(NH2)2
# Number of atom types:             5
# Total number of atoms:            15
# Atom types:                       C H N  Ge Br
# Number of each atom:              2 7 2  1 3
# Bandgap, HSE06 (eV):              3.8082
# Bandgap, GGA (eV):                2.866
# Kpoint for VBM:                   0.0833, 0.15, 0.25
# Kpoint for CBM:                   0.3333, 0, 0.5
# Dielectric constant, electronic:  3.706
# Dielectric constant, ionic:       10.0882
# Dielectric constant, total:       13.7942
# Refractive index:                 1.9251
# Atomization energy (eV/atom):     -4.5544
# Relative energy1 (eV/atom):       0.291
# Relative energy2 (eV/atom):       0.4584
# Volume of the unit cell (A^3):    219.78
# Density (g/cm^3):                 2.7972
# Tool:                             VASP
# Pseudopotential:                  PAW
# Note:                             ENCUT=400eV, k-spacing_relax=0.20/Angstrom, k-spacing_bandgap=0.15/Angstrom
# Created by:                       C.Kim, T.D.Huan, S.Krishnan, R. Ramprasad