data_1
_audit_creation_method   'Generated by vasp2cif'
_cell_length_a    7.50866324619
_cell_length_b    4.24114788464
_cell_length_c    7.25417159171
_cell_angle_alpha    90.783786925
_cell_angle_beta    92.951747617
_cell_angle_gamma    79.0922549393

_symmetry_space_group_name_H-M    'P 1'
loop_
_atom_site_label
_atom_site_type_symbol
_atom_site_fract_x
_atom_site_fract_y
_atom_site_fract_z
_atom_site_occupancy
C1   C   0.634575085398815   0.890728066594995   0.523836874540940   1.0
C2   C   0.488183047440657   0.710317882022643   0.464243411733989   1.0
H3   H   0.365502189988554   0.767646432537177   0.709529201105163   1.0
H4   H   0.265561723614219   0.542873712264814   0.545432199251394   1.0
H5   H   0.755559046265084   0.718679682941342   0.570811883565923   1.0
H6   H   0.671584191879823   0.024045189554350   0.408774799341096   1.0
H7   H   0.593319427210254   0.053156524126180   0.638245349636492   1.0
H8   H   0.389126971601165   0.465384249950539   0.244999260006956   1.0
H9   H   0.577915801897539   0.623569954078448   0.202446958807649   1.0
Br10   Br   0.028490399885406   0.269646630824383   0.401205385857921   1.0
Br11   Br   0.287552823283626   0.193240586022164   0.946103756700587   1.0
Br12   Br   0.765003794170809   0.411169221533221   0.929612753868462   1.0
N13   N   0.369831759367592   0.657475803495487   0.583690150061372   1.0
N14   N   0.482790201966012   0.595908648432328   0.292996247943670   1.0
Ge15   Ge   0.016263536030493   0.972847415621871   0.080181767578324   1.0




# HOIP entry ID:                    0253
# Khazana ID:                       2103
# Organic cation source:            C.C.Stoumpos et al., J. Am. Chem. Soc. 137, 6804 (2015)
# Label:                            Acetamidinium Germanium Bromide
# Material class:                   Hybrid organic-inorganic perovskite ( MC_ino )
# Geometry class:                   Bulk crystalline materials ( GC_cry )
# Organic cation chemical formula:  CH3C(NH2)2
# Number of atom types:             5
# Total number of atoms:            15
# Atom types:                       C H N  Ge Br
# Number of each atom:              2 7 2  1 3
# Bandgap, HSE06 (eV):              4.3201
# Bandgap, GGA (eV):                3.2566
# Kpoint for VBM:                   -0.2, -0.2222, 0.2
# Kpoint for CBM:                   -0.4, 0, 0.4
# Dielectric constant, electronic:  3.3874
# Dielectric constant, ionic:       2.1153
# Dielectric constant, total:       5.5028
# Refractive index:                 1.8405
# Atomization energy (eV/atom):     -4.5537
# Relative energy1 (eV/atom):       0.2917
# Relative energy2 (eV/atom):       0.459
# Volume of the unit cell (A^3):    226.54
# Density (g/cm^3):                 2.7137
# Tool:                             VASP
# Pseudopotential:                  PAW
# Note:                             ENCUT=400eV, k-spacing_relax=0.20/Angstrom, k-spacing_bandgap=0.15/Angstrom
# Created by:                       C.Kim, T.D.Huan, S.Krishnan, R. Ramprasad