data_1
_audit_creation_method   'Generated by vasp2cif'
_cell_length_a    5.87281148594
_cell_length_b    5.76265646375
_cell_length_c    5.82537677447
_cell_angle_alpha    90.7587322547
_cell_angle_beta    96.4340027683
_cell_angle_gamma    88.4805604615

_symmetry_space_group_name_H-M    'P 1'
loop_
_atom_site_label
_atom_site_type_symbol
_atom_site_fract_x
_atom_site_fract_y
_atom_site_fract_z
_atom_site_occupancy
Br1   Br   0.386447569385197   0.996388149293352   0.036910857009261   1.0
Br2   Br   0.869972687102297   0.997905648730608   0.525439547333285   1.0
Br3   Br   0.904181461252826   0.485277583201181   0.998570721093998   1.0
H4   H   0.483513801120281   0.507277141240351   0.247288619271202   1.0
H5   H   0.643750705826669   0.360149054452457   0.453050340194722   1.0
H6   H   0.628780771608881   0.651145105366254   0.462992884604851   1.0
H7   H   0.244096487345338   0.331017754361518   0.514667167808973   1.0
H8   H   0.397354275483963   0.494523743759721   0.742841246780806   1.0
H9   H   0.219642168079254   0.641893025653509   0.517628730741961   1.0
C10   C   0.332110259998267   0.491858889481712   0.560545920394212   1.0
Ge11   Ge   0.942321543762020   0.026554408654000   0.988274424753932   1.0
N12   N   0.534718269034968   0.503569495805387   0.421989540011808   1.0




# HOIP entry ID:                    0254
# Khazana ID:                       2104
# Organic cation source:            T.D.Huan et al., Phys. Rev. B 93,094105(2016)
# Label:                            Methylammonium Germanium Bromide
# Material class:                   Hybrid organic-inorganic perovskite ( MC_ino )
# Geometry class:                   Bulk crystalline materials ( GC_cry )
# Organic cation chemical formula:  CH3NH3
# Number of atom types:             5
# Total number of atoms:            12
# Atom types:                       C H N  Ge Br
# Number of each atom:              1 6 1  1 3
# Bandgap, HSE06 (eV):              2.2969
# Bandgap, GGA (eV):                1.6035
# Kpoint for VBM:                   0.5, 0.5, 0.5
# Kpoint for CBM:                   0.4737, 0.5, 0.4737
# Dielectric constant, electronic:  4.382
# Dielectric constant, ionic:       9.4381
# Dielectric constant, total:       13.8201
# Refractive index:                 2.0933
# Atomization energy (eV/atom):     -4.0654
# Relative energy1 (eV/atom):       0.2914
# Relative energy2 (eV/atom):       0.5006
# Volume of the unit cell (A^3):    195.83
# Density (g/cm^3):                 2.9101
# Tool:                             VASP
# Pseudopotential:                  PAW
# Note:                             ENCUT=400eV, k-spacing_relax=0.20/Angstrom, k-spacing_bandgap=0.15/Angstrom
# Created by:                       C.Kim, T.D.Huan, S.Krishnan, R. Ramprasad