data_1
_audit_creation_method   'Generated by vasp2cif'
_cell_length_a    5.81609034942
_cell_length_b    5.77930646997
_cell_length_c    5.90809855088
_cell_angle_alpha    86.1812594293
_cell_angle_beta    83.2065062335
_cell_angle_gamma    89.3567442455

_symmetry_space_group_name_H-M    'P 1'
loop_
_atom_site_label
_atom_site_type_symbol
_atom_site_fract_x
_atom_site_fract_y
_atom_site_fract_z
_atom_site_occupancy
Br1   Br   0.029705847229195   0.012909689278111   0.608210409904487   1.0
Br2   Br   0.509214716929030   0.000311020293196   0.112746772100834   1.0
Br3   Br   0.978269844924590   0.513620155914367   0.107616272849320   1.0
H4   H   0.288359549869149   0.360594020683770   0.512660911397717   1.0
H5   H   0.534750633217612   0.399564610272357   0.340463539456770   1.0
H6   H   0.357993137123259   0.623498133012106   0.386558096661233   1.0
H7   H   0.617476730883368   0.371917313115063   0.735639567360955   1.0
H8   H   0.684932940202174   0.654748549860180   0.602930811947367   1.0
H9   H   0.421423951223233   0.608449677792905   0.789867501459540   1.0
C10   C   0.547136639425744   0.532384259186031   0.664558435706802   1.0
Ge11   Ge   0.965379662011870   0.972544453163643   0.056078348521453   1.0
N12   N   0.423346346960777   0.475608117428351   0.463679332633511   1.0




# HOIP entry ID:                    0255
# Khazana ID:                       2105
# Organic cation source:            T.D.Huan et al., Phys. Rev. B 93,094105(2016)
# Label:                            Methylammonium Germanium Bromide
# Material class:                   Hybrid organic-inorganic perovskite ( MC_ino )
# Geometry class:                   Bulk crystalline materials ( GC_cry )
# Organic cation chemical formula:  CH3NH3
# Number of atom types:             5
# Total number of atoms:            12
# Atom types:                       C H N  Ge Br
# Number of each atom:              1 6 1  1 3
# Bandgap, HSE06 (eV):              2.3842
# Bandgap, GGA (eV):                1.7183
# Kpoint for VBM:                   0.5, 0.5, 0.5
# Kpoint for CBM:                   0.5, 0.5, 0.5
# Dielectric constant, electronic:  4.334
# Dielectric constant, ionic:       6.8378
# Dielectric constant, total:       11.1719
# Refractive index:                 2.0818
# Atomization energy (eV/atom):     -4.0649
# Relative energy1 (eV/atom):       0.2919
# Relative energy2 (eV/atom):       0.5012
# Volume of the unit cell (A^3):    196.76
# Density (g/cm^3):                 2.8964
# Tool:                             VASP
# Pseudopotential:                  PAW
# Note:                             ENCUT=400eV, k-spacing_relax=0.20/Angstrom, k-spacing_bandgap=0.15/Angstrom
# Created by:                       C.Kim, T.D.Huan, S.Krishnan, R. Ramprasad