data_1
_audit_creation_method   'Generated by vasp2cif'
_cell_length_a    6.10907473086
_cell_length_b    4.24268558108
_cell_length_c    7.75825229503
_cell_angle_alpha    98.833766935
_cell_angle_beta    78.9422630533
_cell_angle_gamma    93.2464804743

_symmetry_space_group_name_H-M    'P 1'
loop_
_atom_site_label
_atom_site_type_symbol
_atom_site_fract_x
_atom_site_fract_y
_atom_site_fract_z
_atom_site_occupancy
Br1   Br   0.986958536855532   0.610653212966625   0.736040202129963   1.0
Br2   Br   0.524145262933075   0.235390484678668   0.075498784098272   1.0
Br3   Br   0.979729877515197   0.760690545873466   0.267081337855316   1.0
H4   H   0.301861791105317   0.741793483149223   0.503096721841629   1.0
H5   H   0.568697878652586   0.704782812246528   0.390007394401501   1.0
H6   H   0.408490329186812   0.969376425341281   0.346805873069997   1.0
H7   H   0.565589965748892   0.975485357337114   0.691176147438952   1.0
H8   H   0.673086610608841   0.226990843979770   0.529054301612973   1.0
H9   H   0.390176566993361   0.266597619826783   0.649345333901444   1.0
C10   C   0.524510156933744   0.102999562024770   0.590576524174942   1.0
Ge11   Ge   0.959773694928096   0.248752014546753   0.008210334862881   1.0
N12   N   0.444329328538544   0.862987638029082   0.449427044612172   1.0




# HOIP entry ID:                    0256
# Khazana ID:                       2106
# Organic cation source:            T.D.Huan et al., Phys. Rev. B 93,094105(2016)
# Label:                            Methylammonium Germanium Bromide
# Material class:                   Hybrid organic-inorganic perovskite ( MC_ino )
# Geometry class:                   Bulk crystalline materials ( GC_cry )
# Organic cation chemical formula:  CH3NH3
# Number of atom types:             5
# Total number of atoms:            12
# Atom types:                       C H N  Ge Br
# Number of each atom:              1 6 1  1 3
# Bandgap, HSE06 (eV):              3.7062
# Bandgap, GGA (eV):                2.8043
# Kpoint for VBM:                   0.5, -0.1667, 0.3
# Kpoint for CBM:                   0.5, 0.5, 0
# Dielectric constant, electronic:  3.8619
# Dielectric constant, ionic:       8.9226
# Dielectric constant, total:       12.7845
# Refractive index:                 1.9652
# Atomization energy (eV/atom):     -4.0513
# Relative energy1 (eV/atom):       0.3055
# Relative energy2 (eV/atom):       0.5147
# Volume of the unit cell (A^3):    194.93
# Density (g/cm^3):                 2.9236
# Tool:                             VASP
# Pseudopotential:                  PAW
# Note:                             ENCUT=400eV, k-spacing_relax=0.20/Angstrom, k-spacing_bandgap=0.15/Angstrom
# Created by:                       C.Kim, T.D.Huan, S.Krishnan, R. Ramprasad