data_1
_audit_creation_method   'Generated by vasp2cif'
_cell_length_a    6.31719426636
_cell_length_b    4.27259124555
_cell_length_c    7.96622478116
_cell_angle_alpha    107.43854329
_cell_angle_beta    84.3826890608
_cell_angle_gamma    77.562965669

_symmetry_space_group_name_H-M    'P 1'
loop_
_atom_site_label
_atom_site_type_symbol
_atom_site_fract_x
_atom_site_fract_y
_atom_site_fract_z
_atom_site_occupancy
Br1   Br   0.954548118089463   0.787240535982576   0.255463632475404   1.0
Br2   Br   0.448922650750234   0.916800532124519   0.967996904939483   1.0
Br3   Br   0.062943935793946   0.437762143322253   0.710830026511260   1.0
H4   H   0.709397373061165   0.293314911528206   0.467405620625129   1.0
H5   H   0.542494864913799   0.606558240258636   0.646267098666215   1.0
H6   H   0.724969845048335   0.685482028922515   0.508282072175767   1.0
H7   H   0.344748482584464   0.418250848642536   0.392326709012238   1.0
H8   H   0.344802664646757   0.853995829290760   0.450608886139342   1.0
H9   H   0.533495268234248   0.547025751894481   0.260960145564837   1.0
C10   C   0.446313072525804   0.594169539938392   0.394346284503833   1.0
Ge11   Ge   0.031863368017476   0.041370894367717   0.973067628178271   1.0
N12   N   0.613880356334235   0.542158743727555   0.513444991208225   1.0




# HOIP entry ID:                    0257
# Khazana ID:                       2107
# Organic cation source:            T.D.Huan et al., Phys. Rev. B 93,094105(2016)
# Label:                            Methylammonium Germanium Bromide
# Material class:                   Hybrid organic-inorganic perovskite ( MC_ino )
# Geometry class:                   Bulk crystalline materials ( GC_cry )
# Organic cation chemical formula:  CH3NH3
# Number of atom types:             5
# Total number of atoms:            12
# Atom types:                       C H N  Ge Br
# Number of each atom:              1 6 1  1 3
# Bandgap, HSE06 (eV):              3.7584
# Bandgap, GGA (eV):                2.8048
# Kpoint for VBM:                   -0.25, -0.25, 0.0833
# Kpoint for CBM:                   0.5, 0, 0.5
# Dielectric constant, electronic:  3.7561
# Dielectric constant, ionic:       9.1169
# Dielectric constant, total:       12.873
# Refractive index:                 1.9381
# Atomization energy (eV/atom):     -4.0478
# Relative energy1 (eV/atom):       0.309
# Relative energy2 (eV/atom):       0.5182
# Volume of the unit cell (A^3):    197.25
# Density (g/cm^3):                 2.8892
# Tool:                             VASP
# Pseudopotential:                  PAW
# Note:                             ENCUT=400eV, k-spacing_relax=0.20/Angstrom, k-spacing_bandgap=0.15/Angstrom
# Created by:                       C.Kim, T.D.Huan, S.Krishnan, R. Ramprasad