data_1
_audit_creation_method   'Generated by vasp2cif'
_cell_length_a    7.88226159716
_cell_length_b    4.16763755812
_cell_length_c    5.84347489537
_cell_angle_alpha    84.9835428578
_cell_angle_beta    92.8828137738
_cell_angle_gamma    89.1169620525

_symmetry_space_group_name_H-M    'P 1'
loop_
_atom_site_label
_atom_site_type_symbol
_atom_site_fract_x
_atom_site_fract_y
_atom_site_fract_z
_atom_site_occupancy
Br1   Br   0.195722889479079   0.698027679906886   0.055861880690493   1.0
Br2   Br   0.912674264693443   0.154297768148027   0.495801887746865   1.0
Br3   Br   0.670877850654655   0.717595912088939   0.998917369692400   1.0
H4   H   0.400344259339285   0.995344240464554   0.304246493450748   1.0
H5   H   0.591227139954945   0.042736934806882   0.442663927182579   1.0
H6   H   0.503313371624486   0.339505166803086   0.268554616902023   1.0
H7   H   0.356676292091286   0.068736065610032   0.707385268091933   1.0
H8   H   0.474270858816688   0.431082118270588   0.677284471127720   1.0
H9   H   0.271209977698113   0.403906591769456   0.524314018010315   1.0
C10   C   0.387051992615604   0.275374424314123   0.590564540758471   1.0
Ge11   Ge   0.933885226057143   0.242533788717218   0.055318210131809   1.0
N12   N   0.475585876975316   0.153219309100102   0.389657316214752   1.0




# HOIP entry ID:                    0258
# Khazana ID:                       2108
# Organic cation source:            T.D.Huan et al., Phys. Rev. B 93,094105(2016)
# Label:                            Methylammonium Germanium Bromide
# Material class:                   Hybrid organic-inorganic perovskite ( MC_ino )
# Geometry class:                   Bulk crystalline materials ( GC_cry )
# Organic cation chemical formula:  CH3NH3
# Number of atom types:             5
# Total number of atoms:            12
# Atom types:                       C H N  Ge Br
# Number of each atom:              1 6 1  1 3
# Bandgap, HSE06 (eV):              3.3669
# Bandgap, GGA (eV):                2.5222
# Kpoint for VBM:                   0.5, 0.2, 0.5
# Kpoint for CBM:                   0.5, 0, 0.5
# Dielectric constant, electronic:  4.0859
# Dielectric constant, ionic:       22.9923
# Dielectric constant, total:       27.0782
# Refractive index:                 2.0214
# Atomization energy (eV/atom):     -4.0511
# Relative energy1 (eV/atom):       0.3057
# Relative energy2 (eV/atom):       0.515
# Volume of the unit cell (A^3):    190.95
# Density (g/cm^3):                 2.9845
# Tool:                             VASP
# Pseudopotential:                  PAW
# Note:                             ENCUT=400eV, k-spacing_relax=0.20/Angstrom, k-spacing_bandgap=0.15/Angstrom
# Created by:                       C.Kim, T.D.Huan, S.Krishnan, R. Ramprasad