data_1
_audit_creation_method   'Generated by vasp2cif'
_cell_length_a    8.35878984531
_cell_length_b    4.57369226471
_cell_length_c    7.23188450893
_cell_angle_alpha    52.4122630429
_cell_angle_beta    106.834795673
_cell_angle_gamma    115.821741917

_symmetry_space_group_name_H-M    'P 1'
loop_
_atom_site_label
_atom_site_type_symbol
_atom_site_fract_x
_atom_site_fract_y
_atom_site_fract_z
_atom_site_occupancy
Br1   Br   0.242645925327352   0.916598064962173   0.045008620997713   1.0
Br2   Br   0.942229210964761   0.665969074444696   0.580011420126191   1.0
Br3   Br   0.719074776137198   0.484777846079091   0.060140238074268   1.0
H4   H   0.620561862145884   0.622787317526758   0.552426865445398   1.0
H5   H   0.424869577393196   0.660739167373869   0.403032460376586   1.0
H6   H   0.431569805118663   0.378725328201128   0.699175619527082   1.0
H7   H   0.509518296003272   0.234194596249310   0.392353591850579   1.0
H8   H   0.519256562356347   0.937279089607792   0.705721482172130   1.0
H9   H   0.309606627394018   0.973048874968541   0.551240901235566   1.0
C10   C   0.452733253148182   0.124706061590160   0.550004862813402   1.0
Ge11   Ge   0.973097513566259   0.311738558103649   0.036352320014132   1.0
N12   N   0.485136590444910   0.474136020892864   0.551181617366993   1.0




# HOIP entry ID:                    0259
# Khazana ID:                       2109
# Organic cation source:            T.D.Huan et al., Phys. Rev. B 93,094105(2016)
# Label:                            Methylammonium Germanium Bromide
# Material class:                   Hybrid organic-inorganic perovskite ( MC_ino )
# Geometry class:                   Bulk crystalline materials ( GC_cry )
# Organic cation chemical formula:  CH3NH3
# Number of atom types:             5
# Total number of atoms:            12
# Atom types:                       C H N  Ge Br
# Number of each atom:              1 6 1  1 3
# Bandgap, HSE06 (eV):              3.3631
# Bandgap, GGA (eV):                2.5432
# Kpoint for VBM:                   -0.1, -0.2273, 0.25
# Kpoint for CBM:                   -0.4, 0, 0.4375
# Dielectric constant, electronic:  3.9683
# Dielectric constant, ionic:       5.6631
# Dielectric constant, total:       9.6314
# Refractive index:                 1.9921
# Atomization energy (eV/atom):     -4.0501
# Relative energy1 (eV/atom):       0.3067
# Relative energy2 (eV/atom):       0.5159
# Volume of the unit cell (A^3):    197.1
# Density (g/cm^3):                 2.8914
# Tool:                             VASP
# Pseudopotential:                  PAW
# Note:                             ENCUT=400eV, k-spacing_relax=0.20/Angstrom, k-spacing_bandgap=0.15/Angstrom
# Created by:                       C.Kim, T.D.Huan, S.Krishnan, R. Ramprasad