data_1
_audit_creation_method   'Generated by vasp2cif'
_cell_length_a    6.03520574331
_cell_length_b    6.06945449448
_cell_length_c    6.041620353
_cell_angle_alpha    100.846983608
_cell_angle_beta    94.5726140569
_cell_angle_gamma    93.9022932308

_symmetry_space_group_name_H-M    'P 1'
loop_
_atom_site_label
_atom_site_type_symbol
_atom_site_fract_x
_atom_site_fract_y
_atom_site_fract_z
_atom_site_occupancy
C1   C   0.305432116266211   0.284619404081404   0.330065343355940   1.0
H2   H   0.075800646046687   0.250941424074455   0.558693286856858   1.0
H3   H   0.067982325646305   0.510220883817723   0.308838516105226   1.0
H4   H   0.569206865966088   0.088702907405661   0.312335884674077   1.0
H5   H   0.564463334893276   0.278702299345483   0.129458962707865   1.0
H6   H   0.277464720974294   0.524852544914083   0.132211537703036   1.0
H7   H   0.287507488446373   0.073719642347427   0.559358942531595   1.0
Br8   Br   0.753652984755753   0.760557044668808   0.389093201316662   1.0
Br9   Br   0.760408302104224   0.343017936053869   0.803019514943372   1.0
Br10   Br   0.253344343174334   0.788239314140156   0.837626396657370   1.0
N11   N   0.210306482234991   0.188614943995944   0.485815519770561   1.0
N12   N   0.205427617130766   0.445216257067962   0.244995572460510   1.0
N13   N   0.496906537973224   0.216669851380153   0.256105043405235   1.0
Ge14   Ge   0.820196234387510   0.778115546706843   0.826442277511717   1.0




# HOIP entry ID:                    0260
# Khazana ID:                       2110
# Organic cation source:            B.Saparov et al., Chem. Rev. 116, 4558 (2016)
# Label:                            Guanidinium Germanium Bromide
# Material class:                   Hybrid organic-inorganic perovskite ( MC_ino )
# Geometry class:                   Bulk crystalline materials ( GC_cry )
# Organic cation chemical formula:  C(NH2)3
# Number of atom types:             5
# Total number of atoms:            14
# Atom types:                       C H N  Ge Br
# Number of each atom:              1 6 3  1 3
# Bandgap, HSE06 (eV):              3.0981
# Bandgap, GGA (eV):                2.2922
# Kpoint for VBM:                   0.5, 0.5, 0.5
# Kpoint for CBM:                   0.5, 0.5, 0.5
# Dielectric constant, electronic:  3.8322
# Dielectric constant, ionic:       4.1292
# Dielectric constant, total:       7.9614
# Refractive index:                 1.9576
# Atomization energy (eV/atom):     -4.5936
# Relative energy1 (eV/atom):       0.4868
# Relative energy2 (eV/atom):       0.6661
# Volume of the unit cell (A^3):    215.88
# Density (g/cm^3):                 2.8553
# Tool:                             VASP
# Pseudopotential:                  PAW
# Note:                             ENCUT=400eV, k-spacing_relax=0.20/Angstrom, k-spacing_bandgap=0.15/Angstrom
# Created by:                       C.Kim, T.D.Huan, S.Krishnan, R. Ramprasad