data_1
_audit_creation_method   'Generated by vasp2cif'
_cell_length_a    5.88266908854
_cell_length_b    5.9331744387
_cell_length_c    6.2118265195
_cell_angle_alpha    88.385922941
_cell_angle_beta    94.1271603166
_cell_angle_gamma    81.313330905

_symmetry_space_group_name_H-M    'P 1'
loop_
_atom_site_label
_atom_site_type_symbol
_atom_site_fract_x
_atom_site_fract_y
_atom_site_fract_z
_atom_site_occupancy
C1   C   0.757291263132736   0.289262908292500   0.635668912555154   1.0
H2   H   0.852800197759549   0.176686114824427   0.342434367183955   1.0
H3   H   0.002175052665116   0.467764485905647   0.526659975711041   1.0
H4   H   0.505787991179382   0.153902411228586   0.783155426583726   1.0
H5   H   0.622927073723872   0.362296965534810   0.925078261402916   1.0
H6   H   0.894567846255576   0.555571952035898   0.768755095874660   1.0
H7   H   0.661050636290433   0.025987624059113   0.462940369887328   1.0
Br8   Br   0.304668667171150   0.799301606867175   0.594775737184193   1.0
Br9   Br   0.201838020283255   0.246486380564072   0.139649436199612   1.0
Br10   Br   0.714501653869988   0.729388758801072   0.122812314163241   1.0
N11   N   0.745601612042044   0.162450220167670   0.461286081979267   1.0
N12   N   0.896957051310586   0.447760816639843   0.645212985892094   1.0
N13   N   0.629119893633607   0.255630533809317   0.800305609617737   1.0
Ge14   Ge   0.267913040682750   0.802349221269978   0.173545425765049   1.0




# HOIP entry ID:                    0261
# Khazana ID:                       2111
# Organic cation source:            B.Saparov et al., Chem. Rev. 116, 4558 (2016)
# Label:                            Guanidinium Germanium Bromide
# Material class:                   Hybrid organic-inorganic perovskite ( MC_ino )
# Geometry class:                   Bulk crystalline materials ( GC_cry )
# Organic cation chemical formula:  C(NH2)3
# Number of atom types:             5
# Total number of atoms:            14
# Atom types:                       C H N  Ge Br
# Number of each atom:              1 6 3  1 3
# Bandgap, HSE06 (eV):              2.876
# Bandgap, GGA (eV):                2.091
# Kpoint for VBM:                   0.5, 0.5, 0.5
# Kpoint for CBM:                   0.4737, 0.5, 0.4737
# Dielectric constant, electronic:  3.9515
# Dielectric constant, ionic:       5.4452
# Dielectric constant, total:       9.3967
# Refractive index:                 1.9878
# Atomization energy (eV/atom):     -4.5932
# Relative energy1 (eV/atom):       0.4872
# Relative energy2 (eV/atom):       0.6665
# Volume of the unit cell (A^3):    213.6
# Density (g/cm^3):                 2.8858
# Tool:                             VASP
# Pseudopotential:                  PAW
# Note:                             ENCUT=400eV, k-spacing_relax=0.20/Angstrom, k-spacing_bandgap=0.15/Angstrom
# Created by:                       C.Kim, T.D.Huan, S.Krishnan, R. Ramprasad