data_1
_audit_creation_method   'Generated by vasp2cif'
_cell_length_a    9.10385860391
_cell_length_b    4.15415642811
_cell_length_c    6.31766488693
_cell_angle_alpha    76.2449577849
_cell_angle_beta    97.2213509423
_cell_angle_gamma    117.177849266

_symmetry_space_group_name_H-M    'P 1'
loop_
_atom_site_label
_atom_site_type_symbol
_atom_site_fract_x
_atom_site_fract_y
_atom_site_fract_z
_atom_site_occupancy
C1   C   0.466930775336429   0.196921188657747   0.529862307806951   1.0
H2   H   0.368059796150689   0.336020832739820   0.749767445831623   1.0
H3   H   0.580169668536776   0.559670128777221   0.737992569284607   1.0
H4   H   0.608123055062386   0.129672522777419   0.329051997249565   1.0
H5   H   0.718269890283580   0.441111883441067   0.497462614253621   1.0
H6   H   0.214094011828877   0.925154903815901   0.515350336263644   1.0
H7   H   0.314150801678224   0.822192603217559   0.343419352977527   1.0
Br8   Br   0.967553977758392   0.009849646047925   0.579505652163668   1.0
Br9   Br   0.230513036847199   0.535101983104212   0.020942737376139   1.0
Br10   Br   0.719550106148603   0.027904621999916   0.017736220384556   1.0
N11   N   0.471588229844407   0.391813883767092   0.674570348106961   1.0
N12   N   0.321460884901605   0.949707142692972   0.465895749100163   1.0
N13   N   0.608105934297868   0.246594662831704   0.453138004063938   1.0
Ge14   Ge   0.973169831325123   0.857033996129580   0.003314665137083   1.0




# HOIP entry ID:                    0262
# Khazana ID:                       2112
# Organic cation source:            B.Saparov et al., Chem. Rev. 116, 4558 (2016)
# Label:                            Guanidinium Germanium Bromide
# Material class:                   Hybrid organic-inorganic perovskite ( MC_ino )
# Geometry class:                   Bulk crystalline materials ( GC_cry )
# Organic cation chemical formula:  C(NH2)3
# Number of atom types:             5
# Total number of atoms:            14
# Atom types:                       C H N  Ge Br
# Number of each atom:              1 6 3  1 3
# Bandgap, HSE06 (eV):              3.7375
# Bandgap, GGA (eV):                2.8096
# Kpoint for VBM:                   0.375, 0.1818, 0.0833
# Kpoint for CBM:                   0, 0.0455, 0.5
# Dielectric constant, electronic:  3.8574
# Dielectric constant, ionic:       6.826
# Dielectric constant, total:       10.6834
# Refractive index:                 1.964
# Atomization energy (eV/atom):     -4.5965
# Relative energy1 (eV/atom):       0.4839
# Relative energy2 (eV/atom):       0.6632
# Volume of the unit cell (A^3):    206.41
# Density (g/cm^3):                 2.9863
# Tool:                             VASP
# Pseudopotential:                  PAW
# Note:                             ENCUT=400eV, k-spacing_relax=0.20/Angstrom, k-spacing_bandgap=0.15/Angstrom
# Created by:                       C.Kim, T.D.Huan, S.Krishnan, R. Ramprasad