data_1
_audit_creation_method   'Generated by vasp2cif'
_cell_length_a    5.64875134448
_cell_length_b    5.79638818083
_cell_length_c    5.63228751649
_cell_angle_alpha    97.6690232619
_cell_angle_beta    88.1275879996
_cell_angle_gamma    93.1767599962

_symmetry_space_group_name_H-M    'P 1'
loop_
_atom_site_label
_atom_site_type_symbol
_atom_site_fract_x
_atom_site_fract_y
_atom_site_fract_z
_atom_site_occupancy
Br1   Br   0.040714505138631   0.974265522714738   0.554372962891250   1.0
Br2   Br   0.515054702669232   0.906054576606564   0.020871912968090   1.0
Br3   Br   0.999329860802469   0.445295911001310   0.107080648019455   1.0
H4   H   0.340555305626666   0.505805937685530   0.365109822797820   1.0
H5   H   0.642320700585572   0.536956243115526   0.357743429304193   1.0
H6   H   0.483288639500898   0.683026186856274   0.589848273673923   1.0
H7   H   0.365539744046693   0.245366781931366   0.593972126721106   1.0
Ge8   Ge   0.976282348362950   0.986297826645249   0.026132265190455   1.0
N9   N   0.491951085988205   0.531352529801353   0.469245063659102   1.0
O10   O   0.518703107278682   0.340098483642024   0.607613494774526   1.0




# HOIP entry ID:                    0263
# Khazana ID:                       2113
# Organic cation source:            G.Kieslich et al., Chem. Sci. 6, 3430 (2015)
# Label:                            Hydroxylammonium Germanium Bromide
# Material class:                   Hybrid organic-inorganic perovskite ( MC_ino )
# Geometry class:                   Bulk crystalline materials ( GC_cry )
# Organic cation chemical formula:  OHNH3
# Number of atom types:             5
# Total number of atoms:            10
# Atom types:                        H N O Ge Br
# Number of each atom:               4 1  1 3
# Bandgap, HSE06 (eV):              2.2463
# Bandgap, GGA (eV):                1.6643
# Kpoint for VBM:                   0.5, 0.5, 0.5
# Kpoint for CBM:                   0.4474, 0.4474, 0.4474
# Dielectric constant, electronic:  4.7993
# Dielectric constant, ionic:       9.2078
# Dielectric constant, total:       14.0071
# Refractive index:                 2.1907
# Atomization energy (eV/atom):     -3.7562
# Relative energy1 (eV/atom):       0.5346
# Relative energy2 (eV/atom):       0.7856
# Volume of the unit cell (A^3):    182.42
# Density (g/cm^3):                 3.142
# Tool:                             VASP
# Pseudopotential:                  PAW
# Note:                             ENCUT=400eV, k-spacing_relax=0.20/Angstrom, k-spacing_bandgap=0.15/Angstrom
# Created by:                       C.Kim, T.D.Huan, S.Krishnan, R. Ramprasad