data_1
_audit_creation_method   'Generated by vasp2cif'
_cell_length_a    5.88594376358
_cell_length_b    4.21343443949
_cell_length_c    7.31415734367
_cell_angle_alpha    106.334489603
_cell_angle_beta    85.8441145085
_cell_angle_gamma    91.8215787144

_symmetry_space_group_name_H-M    'P 1'
loop_
_atom_site_label
_atom_site_type_symbol
_atom_site_fract_x
_atom_site_fract_y
_atom_site_fract_z
_atom_site_occupancy
Br1   Br   0.979327608059464   0.171966051114616   0.727326238276895   1.0
Br2   Br   0.501310422753583   0.814788269602111   0.028619444155616   1.0
Br3   Br   0.951408911892017   0.444989642490981   0.294700213259077   1.0
H4   H   0.508237450073423   0.932334139909862   0.375369951839204   1.0
H5   H   0.645296231267572   0.949493670007683   0.576449939684977   1.0
H6   H   0.368699885336809   0.073466085247894   0.598242213326266   1.0
H7   H   0.273289219351604   0.542286428650456   0.438298225396778   1.0
Ge8   Ge   0.948250234962437   0.835252467997449   0.011302698651420   1.0
N9   N   0.489180301910253   0.909734331934878   0.514419931120045   1.0
O10   O   0.416519734392843   0.576898913044054   0.509051144289636   1.0




# HOIP entry ID:                    0264
# Khazana ID:                       2114
# Organic cation source:            G.Kieslich et al., Chem. Sci. 6, 3430 (2015)
# Label:                            Hydroxylammonium Germanium Bromide
# Material class:                   Hybrid organic-inorganic perovskite ( MC_ino )
# Geometry class:                   Bulk crystalline materials ( GC_cry )
# Organic cation chemical formula:  OHNH3
# Number of atom types:             5
# Total number of atoms:            10
# Atom types:                        H N O Ge Br
# Number of each atom:               4 1  1 3
# Bandgap, HSE06 (eV):              3.1612
# Bandgap, GGA (eV):                2.3743
# Kpoint for VBM:                   0.5, -0.2778, 0.1667
# Kpoint for CBM:                   0.5, 0.5, 0.5
# Dielectric constant, electronic:  4.5086
# Dielectric constant, ionic:       25.4957
# Dielectric constant, total:       30.0043
# Refractive index:                 2.1233
# Atomization energy (eV/atom):     -3.7678
# Relative energy1 (eV/atom):       0.5229
# Relative energy2 (eV/atom):       0.774
# Volume of the unit cell (A^3):    173.6
# Density (g/cm^3):                 3.3016
# Tool:                             VASP
# Pseudopotential:                  PAW
# Note:                             ENCUT=400eV, k-spacing_relax=0.20/Angstrom, k-spacing_bandgap=0.15/Angstrom
# Created by:                       C.Kim, T.D.Huan, S.Krishnan, R. Ramprasad