data_1
_audit_creation_method   'Generated by vasp2cif'
_cell_length_a    7.33752213636
_cell_length_b    4.22564300264
_cell_length_c    5.87921774791
_cell_angle_alpha    91.9645742459
_cell_angle_beta    94.1234158979
_cell_angle_gamma    72.5400142709

_symmetry_space_group_name_H-M    'P 1'
loop_
_atom_site_label
_atom_site_type_symbol
_atom_site_fract_x
_atom_site_fract_y
_atom_site_fract_z
_atom_site_occupancy
Br1   Br   0.774509254807953   0.340621008479282   0.141425039715408   1.0
Br2   Br   0.090137175611943   0.690227271380508   0.606266778506942   1.0
Br3   Br   0.341133023978763   0.047525246516130   0.147289963012099   1.0
H4   H   0.436619677781643   0.398310861829103   0.602921459186618   1.0
H5   H   0.641265114375891   0.203862830261805   0.472471421412614   1.0
H6   H   0.656147751816384   0.316424144975130   0.753474734629542   1.0
H7   H   0.488861160345316   0.959533922180064   0.827422756950405   1.0
Ge8   Ge   0.060990961387105   0.671247398394165   0.159525629993020   1.0
N9   N   0.574735958726187   0.233830167426106   0.625372416702525   1.0
O10   O   0.564239921168841   0.912357148557696   0.687219799890812   1.0




# HOIP entry ID:                    0265
# Khazana ID:                       2115
# Organic cation source:            G.Kieslich et al., Chem. Sci. 6, 3430 (2015)
# Label:                            Hydroxylammonium Germanium Bromide
# Material class:                   Hybrid organic-inorganic perovskite ( MC_ino )
# Geometry class:                   Bulk crystalline materials ( GC_cry )
# Organic cation chemical formula:  OHNH3
# Number of atom types:             5
# Total number of atoms:            10
# Atom types:                        H N O Ge Br
# Number of each atom:               4 1  1 3
# Bandgap, HSE06 (eV):              3.1734
# Bandgap, GGA (eV):                2.3568
# Kpoint for VBM:                   0.1, 0.3, 0.5
# Kpoint for CBM:                   0.5, 0, 0.5
# Dielectric constant, electronic:  4.514
# Dielectric constant, ionic:       34.26
# Dielectric constant, total:       38.774
# Refractive index:                 2.1246
# Atomization energy (eV/atom):     -3.7663
# Relative energy1 (eV/atom):       0.5245
# Relative energy2 (eV/atom):       0.7755
# Volume of the unit cell (A^3):    173.43
# Density (g/cm^3):                 3.3049
# Tool:                             VASP
# Pseudopotential:                  PAW
# Note:                             ENCUT=400eV, k-spacing_relax=0.20/Angstrom, k-spacing_bandgap=0.15/Angstrom
# Created by:                       C.Kim, T.D.Huan, S.Krishnan, R. Ramprasad