data_1
_audit_creation_method   'Generated by vasp2cif'
_cell_length_a    5.83095242308
_cell_length_b    4.12892389013
_cell_length_c    7.40206594151
_cell_angle_alpha    105.103025801
_cell_angle_beta    86.4612526875
_cell_angle_gamma    92.8968152027

_symmetry_space_group_name_H-M    'P 1'
loop_
_atom_site_label
_atom_site_type_symbol
_atom_site_fract_x
_atom_site_fract_y
_atom_site_fract_z
_atom_site_occupancy
Br1   Br   0.863923837700348   0.889046954867645   0.766624146569299   1.0
Br2   Br   0.339260691058961   0.577840548858681   0.015905090253270   1.0
Br3   Br   0.878403121234882   0.156753579417071   0.330826418474288   1.0
H4   H   0.472854748389885   0.139560552048792   0.495660364856036   1.0
H5   H   0.478939574114222   0.993450744302237   0.687230940753871   1.0
H6   H   0.216917783309803   0.059123966958275   0.612201819879658   1.0
H7   H   0.348188062740718   0.643203148987169   0.332929165854082   1.0
Ge8   Ge   0.880355413027836   0.562003799445883   0.052676846299981   1.0
N9   N   0.384999152768970   0.988671392810815   0.571426695635544   1.0
O10   O   0.381427615654417   0.641675312303398   0.463918511423984   1.0




# HOIP entry ID:                    0266
# Khazana ID:                       2116
# Organic cation source:            G.Kieslich et al., Chem. Sci. 6, 3430 (2015)
# Label:                            Hydroxylammonium Germanium Bromide
# Material class:                   Hybrid organic-inorganic perovskite ( MC_ino )
# Geometry class:                   Bulk crystalline materials ( GC_cry )
# Organic cation chemical formula:  OHNH3
# Number of atom types:             5
# Total number of atoms:            10
# Atom types:                        H N O Ge Br
# Number of each atom:               4 1  1 3
# Bandgap, HSE06 (eV):              3.0125
# Bandgap, GGA (eV):                2.2068
# Kpoint for VBM:                   0.5, 0, 0.5
# Kpoint for CBM:                   0.5, 0.5, 0
# Dielectric constant, electronic:  4.599
# Dielectric constant, ionic:       21.0124
# Dielectric constant, total:       25.6114
# Refractive index:                 2.1445
# Atomization energy (eV/atom):     -3.7632
# Relative energy1 (eV/atom):       0.5276
# Relative energy2 (eV/atom):       0.7786
# Volume of the unit cell (A^3):    171.62
# Density (g/cm^3):                 3.3397
# Tool:                             VASP
# Pseudopotential:                  PAW
# Note:                             ENCUT=400eV, k-spacing_relax=0.20/Angstrom, k-spacing_bandgap=0.15/Angstrom
# Created by:                       C.Kim, T.D.Huan, S.Krishnan, R. Ramprasad