data_1
_audit_creation_method   'Generated by vasp2cif'
_cell_length_a    7.49330380428
_cell_length_b    4.13744590407
_cell_length_c    5.95542014958
_cell_angle_alpha    81.8461485015
_cell_angle_beta    81.607500105
_cell_angle_gamma    73.578644389

_symmetry_space_group_name_H-M    'P 1'
loop_
_atom_site_label
_atom_site_type_symbol
_atom_site_fract_x
_atom_site_fract_y
_atom_site_fract_z
_atom_site_occupancy
Br1   Br   0.777672993602568   0.358262327640953   0.191854102485118   1.0
Br2   Br   0.122817060273631   0.758748256638842   0.761415416912233   1.0
Br3   Br   0.343725023708471   0.068297343801607   0.221236610325930   1.0
H4   H   0.449075682306308   0.107662911345024   0.561176821998183   1.0
H5   H   0.613682986704833   0.266057898812837   0.638743038637697   1.0
H6   H   0.453738044350551   0.137297195121958   0.845279119199313   1.0
H7   H   0.698671368181702   0.700500097873194   0.854978984745518   1.0
Ge8   Ge   0.057439005756171   0.686789911838788   0.199132726690540   1.0
N9   N   0.534328101840399   0.094453772051108   0.687819502374879   1.0
O10   O   0.655829733275410   0.751160284875748   0.699353676630588   1.0




# HOIP entry ID:                    0267
# Khazana ID:                       2117
# Organic cation source:            G.Kieslich et al., Chem. Sci. 6, 3430 (2015)
# Label:                            Hydroxylammonium Germanium Bromide
# Material class:                   Hybrid organic-inorganic perovskite ( MC_ino )
# Geometry class:                   Bulk crystalline materials ( GC_cry )
# Organic cation chemical formula:  OHNH3
# Number of atom types:             5
# Total number of atoms:            10
# Atom types:                        H N O Ge Br
# Number of each atom:               4 1  1 3
# Bandgap, HSE06 (eV):              3.5621
# Bandgap, GGA (eV):                2.6883
# Kpoint for VBM:                   0.5, 0, 0.5
# Kpoint for CBM:                   0.5, 0, 0.3571
# Dielectric constant, electronic:  4.2999
# Dielectric constant, ionic:       14.4877
# Dielectric constant, total:       18.7875
# Refractive index:                 2.0736
# Atomization energy (eV/atom):     -3.7636
# Relative energy1 (eV/atom):       0.5271
# Relative energy2 (eV/atom):       0.7782
# Volume of the unit cell (A^3):    174.22
# Density (g/cm^3):                 3.2899
# Tool:                             VASP
# Pseudopotential:                  PAW
# Note:                             ENCUT=400eV, k-spacing_relax=0.20/Angstrom, k-spacing_bandgap=0.15/Angstrom
# Created by:                       C.Kim, T.D.Huan, S.Krishnan, R. Ramprasad