data_1
_audit_creation_method   'Generated by vasp2cif'
_cell_length_a    6.07535925143
_cell_length_b    4.12727369698
_cell_length_c    7.36985490126
_cell_angle_alpha    103.826491469
_cell_angle_beta    96.3903064315
_cell_angle_gamma    83.4997946446

_symmetry_space_group_name_H-M    'P 1'
loop_
_atom_site_label
_atom_site_type_symbol
_atom_site_fract_x
_atom_site_fract_y
_atom_site_fract_z
_atom_site_occupancy
Br1   Br   0.848145596444482   0.149447612011940   0.771446029077012   1.0
Br2   Br   0.341926937367660   0.666733318024768   0.002408822780225   1.0
Br3   Br   0.962696750332569   0.371762265215935   0.339930195136525   1.0
H4   H   0.220515086477661   0.078510151770850   0.535512523738674   1.0
H5   H   0.480354848406947   0.104639736174455   0.655409244170158   1.0
H6   H   0.293750790319827   0.890050009598937   0.720885623791787   1.0
H7   H   0.316206054110331   0.562842586198634   0.401219155442334   1.0
Ge8   Ge   0.915815308777916   0.780113616668423   0.046824645059445   1.0
N9   N   0.348782531811217   0.956267271360360   0.606905136737474   1.0
O10   O   0.446716095951452   0.660773432975752   0.481828624066360   1.0




# HOIP entry ID:                    0268
# Khazana ID:                       2118
# Organic cation source:            G.Kieslich et al., Chem. Sci. 6, 3430 (2015)
# Label:                            Hydroxylammonium Germanium Bromide
# Material class:                   Hybrid organic-inorganic perovskite ( MC_ino )
# Geometry class:                   Bulk crystalline materials ( GC_cry )
# Organic cation chemical formula:  OHNH3
# Number of atom types:             5
# Total number of atoms:            10
# Atom types:                        H N O Ge Br
# Number of each atom:               4 1  1 3
# Bandgap, HSE06 (eV):              3.5873
# Bandgap, GGA (eV):                2.7062
# Kpoint for VBM:                   0.5, 0, 0.5
# Kpoint for CBM:                   0.5, 0, 0.5
# Dielectric constant, electronic:  4.208
# Dielectric constant, ionic:       17.0706
# Dielectric constant, total:       21.2786
# Refractive index:                 2.0513
# Atomization energy (eV/atom):     -3.7539
# Relative energy1 (eV/atom):       0.5369
# Relative energy2 (eV/atom):       0.7879
# Volume of the unit cell (A^3):    177.61
# Density (g/cm^3):                 3.2271
# Tool:                             VASP
# Pseudopotential:                  PAW
# Note:                             ENCUT=400eV, k-spacing_relax=0.20/Angstrom, k-spacing_bandgap=0.15/Angstrom
# Created by:                       C.Kim, T.D.Huan, S.Krishnan, R. Ramprasad