data_1
_audit_creation_method   'Generated by vasp2cif'
_cell_length_a    7.55130420135
_cell_length_b    4.10129867481
_cell_length_c    5.88887266639
_cell_angle_alpha    83.8319215613
_cell_angle_beta    94.3094329435
_cell_angle_gamma    74.0614008621

_symmetry_space_group_name_H-M    'P 1'
loop_
_atom_site_label
_atom_site_type_symbol
_atom_site_fract_x
_atom_site_fract_y
_atom_site_fract_z
_atom_site_occupancy
Br1   Br   0.286601450081186   0.030026670882599   0.952960903121770   1.0
Br2   Br   0.935270207890632   0.771417949453188   0.529023361967134   1.0
Br3   Br   0.722055203851248   0.308758050752722   0.992832711336341   1.0
H4   H   0.605798640617245   0.494158464052212   0.320181779467127   1.0
H5   H   0.621545748953558   0.506816249839595   0.611592448116987   1.0
H6   H   0.366796457607691   0.351375097935055   0.629554519560500   1.0
H7   H   0.459461587683308   0.820814922202317   0.428180562880570   1.0
Ge8   Ge   0.007591712909786   0.641812382144408   0.968850625272559   1.0
N9   N   0.532176395685781   0.563641745032541   0.459134722326702   1.0
O10   O   0.404032594719432   0.355938467705414   0.470568365950342   1.0




# HOIP entry ID:                    0269
# Khazana ID:                       2119
# Organic cation source:            G.Kieslich et al., Chem. Sci. 6, 3430 (2015)
# Label:                            Hydroxylammonium Germanium Bromide
# Material class:                   Hybrid organic-inorganic perovskite ( MC_ino )
# Geometry class:                   Bulk crystalline materials ( GC_cry )
# Organic cation chemical formula:  OHNH3
# Number of atom types:             5
# Total number of atoms:            10
# Atom types:                        H N O Ge Br
# Number of each atom:               4 1  1 3
# Bandgap, HSE06 (eV):              3.5474
# Bandgap, GGA (eV):                2.6843
# Kpoint for VBM:                   0.5, 0, 0.5
# Kpoint for CBM:                   0.5, 0, 0.3571
# Dielectric constant, electronic:  4.3486
# Dielectric constant, ionic:       13.2536
# Dielectric constant, total:       17.6022
# Refractive index:                 2.0853
# Atomization energy (eV/atom):     -3.7628
# Relative energy1 (eV/atom):       0.528
# Relative energy2 (eV/atom):       0.779
# Volume of the unit cell (A^3):    173.31
# Density (g/cm^3):                 3.3072
# Tool:                             VASP
# Pseudopotential:                  PAW
# Note:                             ENCUT=400eV, k-spacing_relax=0.20/Angstrom, k-spacing_bandgap=0.15/Angstrom
# Created by:                       C.Kim, T.D.Huan, S.Krishnan, R. Ramprasad