data_1
_audit_creation_method   'Generated by vasp2cif'
_cell_length_a    5.92532067917
_cell_length_b    5.96276919689
_cell_length_c    5.82874074651
_cell_angle_alpha    80.5194146654
_cell_angle_beta    83.3796551414
_cell_angle_gamma    85.4057591119

_symmetry_space_group_name_H-M    'P 1'
loop_
_atom_site_label
_atom_site_type_symbol
_atom_site_fract_x
_atom_site_fract_y
_atom_site_fract_z
_atom_site_occupancy
Ge1   Ge   0.634335800354556   0.333671975780298   0.479887615574228   1.0
Br2   Br   0.640068514990652   0.892506152938147   0.517804455847383   1.0
Br3   Br   0.078977709029409   0.354140073577327   0.472977321636954   1.0
Br4   Br   0.614959658611141   0.411315389851353   0.025603193396854   1.0
N5   N   0.098408349442806   0.740782006351296   0.856686229196249   1.0
N6   N   0.236162825799269   0.933630217118683   0.122631676142916   1.0
H7   H   0.229317788292406   0.619298481460177   0.863251064028155   1.0
H8   H   0.377856453916877   0.826776683921835   0.141000198536794   1.0
H9   H   0.975784029939469   0.732113689469188   0.750484172514895   1.0
H10   H   0.209788734025928   0.060723117654398   0.222132500103811   1.0
H11   H   0.936874673785283   0.026595866166666   0.973641292203347   1.0
C12   C   0.083625461812247   0.905436345710591   0.983800280818450   1.0




# HOIP entry ID:                    0270
# Khazana ID:                       2120
# Organic cation source:            T.D.Huan et al., Phys. Rev. B 93,094105(2016)
# Label:                            Formamidinium Germanium Bromide
# Material class:                   Hybrid organic-inorganic perovskite ( MC_ino )
# Geometry class:                   Bulk crystalline materials ( GC_cry )
# Organic cation chemical formula:  HC(NH2)2
# Number of atom types:             5
# Total number of atoms:            12
# Atom types:                       C H N  Ge Br
# Number of each atom:              1 5 2  1 3
# Bandgap, HSE06 (eV):              2.584
# Bandgap, GGA (eV):                1.8606
# Kpoint for VBM:                   0.5, 0.5, 0.5
# Kpoint for CBM:                   0.5, 0.5, 0.5
# Dielectric constant, electronic:  4.1733
# Dielectric constant, ionic:       5.4093
# Dielectric constant, total:       9.5826
# Refractive index:                 2.0429
# Atomization energy (eV/atom):     -4.4087
# Relative energy1 (eV/atom):       0.0406
# Relative energy2 (eV/atom):       0.2499
# Volume of the unit cell (A^3):    201.38
# Density (g/cm^3):                 2.9371
# Tool:                             VASP
# Pseudopotential:                  PAW
# Note:                             ENCUT=400eV, k-spacing_relax=0.20/Angstrom, k-spacing_bandgap=0.15/Angstrom
# Created by:                       C.Kim, T.D.Huan, S.Krishnan, R. Ramprasad