data_1
_audit_creation_method   'Generated by vasp2cif'
_cell_length_a    6.56407804564
_cell_length_b    5.65288849241
_cell_length_c    5.65407138803
_cell_angle_alpha    94.9652667832
_cell_angle_beta    90.0236974462
_cell_angle_gamma    90.1237309847

_symmetry_space_group_name_H-M    'P 1'
loop_
_atom_site_label
_atom_site_type_symbol
_atom_site_fract_x
_atom_site_fract_y
_atom_site_fract_z
_atom_site_occupancy
Ge1   Ge   0.427275283214790   0.385416401605617   0.614939604278206   1.0
Br2   Br   0.511748905206744   0.850863492094092   0.652616546760257   1.0
Br3   Br   0.511605636686326   0.348428182440166   0.150240857134634   1.0
Br4   Br   0.029104437114491   0.408419995969872   0.591429341016159   1.0
N5   N   0.180450462194003   0.852651404483495   0.145734469291412   1.0
N6   N   0.827518297195994   0.840208422159883   0.162267154925459   1.0
H7   H   0.199070660691596   0.731946431891984   0.267129362121914   1.0
H8   H   0.823196676255336   0.718659858640258   0.284758464710997   1.0
H9   H   0.306520492583914   0.921511708142823   0.073411607647642   1.0
H10   H   0.693556078257586   0.901451230502040   0.102768990378600   1.0
H11   H   0.990369760787047   0.050071840644748   0.948508817796530   1.0
C12   C   0.998951273482824   0.920330986676390   0.079394766938698   1.0




# HOIP entry ID:                    0271
# Khazana ID:                       2121
# Organic cation source:            T.D.Huan et al., Phys. Rev. B 93,094105(2016)
# Label:                            Formamidinium Germanium Bromide
# Material class:                   Hybrid organic-inorganic perovskite ( MC_ino )
# Geometry class:                   Bulk crystalline materials ( GC_cry )
# Organic cation chemical formula:  HC(NH2)2
# Number of atom types:             5
# Total number of atoms:            12
# Atom types:                       C H N  Ge Br
# Number of each atom:              1 5 2  1 3
# Bandgap, HSE06 (eV):              2.6354
# Bandgap, GGA (eV):                1.9287
# Kpoint for VBM:                   0, 0.5, 0.5
# Kpoint for CBM:                   0.4474, 0.5, 0.4474
# Dielectric constant, electronic:  4.1452
# Dielectric constant, ionic:       8.2156
# Dielectric constant, total:       12.3608
# Refractive index:                 2.036
# Atomization energy (eV/atom):     -4.3969
# Relative energy1 (eV/atom):       0.0524
# Relative energy2 (eV/atom):       0.2616
# Volume of the unit cell (A^3):    209.01
# Density (g/cm^3):                 2.8299
# Tool:                             VASP
# Pseudopotential:                  PAW
# Note:                             ENCUT=400eV, k-spacing_relax=0.20/Angstrom, k-spacing_bandgap=0.15/Angstrom
# Created by:                       C.Kim, T.D.Huan, S.Krishnan, R. Ramprasad