data_1
_audit_creation_method   'Generated by vasp2cif'
_cell_length_a    5.85285090413
_cell_length_b    6.1035753517
_cell_length_c    6.04736119014
_cell_angle_alpha    99.3414295164
_cell_angle_beta    98.1134964566
_cell_angle_gamma    77.6473403212

_symmetry_space_group_name_H-M    'P 1'
loop_
_atom_site_label
_atom_site_type_symbol
_atom_site_fract_x
_atom_site_fract_y
_atom_site_fract_z
_atom_site_occupancy
Ge1   Ge   0.363088945045495   0.499972467652017   0.474143729253514   1.0
Br2   Br   0.531795328255975   0.932338837636256   0.263180644569519   1.0
Br3   Br   0.490899740210191   0.346152192692202   0.853926353162132   1.0
Br4   Br   0.961910680090238   0.372998150482911   0.422933749441524   1.0
N5   N   0.904023891226649   0.708524715157312   0.975022656772573   1.0
N6   N   0.202217982534775   0.833340308674796   0.663681230830469   1.0
H7   H   0.105453543616300   0.791606794156974   0.775169031706750   1.0
H8   H   0.092729139826619   0.943466865608391   0.565407764241269   1.0
H9   H   0.838963522378968   0.564300190801564   0.971928696089764   1.0
H10   H   0.325353536057426   0.919693831336597   0.753809847688158   1.0
H11   H   0.860789775351629   0.051389786341527   0.096899350150006   1.0
C12   C   0.809113915405741   0.888745859459350   0.081906946094343   1.0




# HOIP entry ID:                    0272
# Khazana ID:                       2122
# Organic cation source:            T.D.Huan et al., Phys. Rev. B 93,094105(2016)
# Label:                            Formamidinium Germanium Bromide
# Material class:                   Hybrid organic-inorganic perovskite ( MC_ino )
# Geometry class:                   Bulk crystalline materials ( GC_cry )
# Organic cation chemical formula:  HC(NH2)2
# Number of atom types:             5
# Total number of atoms:            12
# Atom types:                       C H N  Ge Br
# Number of each atom:              1 5 2  1 3
# Bandgap, HSE06 (eV):              3.9902
# Bandgap, GGA (eV):                3.0108
# Kpoint for VBM:                   -0.4286, -0.2857, 0.4286
# Kpoint for CBM:                   0.5, 0.5, 0.5
# Dielectric constant, electronic:  3.5783
# Dielectric constant, ionic:       2.2525
# Dielectric constant, total:       5.8309
# Refractive index:                 1.8916
# Atomization energy (eV/atom):     -4.271
# Relative energy1 (eV/atom):       0.1783
# Relative energy2 (eV/atom):       0.3875
# Volume of the unit cell (A^3):    206.96
# Density (g/cm^3):                 2.8579
# Tool:                             VASP
# Pseudopotential:                  PAW
# Note:                             ENCUT=400eV, k-spacing_relax=0.20/Angstrom, k-spacing_bandgap=0.15/Angstrom
# Created by:                       C.Kim, T.D.Huan, S.Krishnan, R. Ramprasad