data_1
_audit_creation_method   'Generated by vasp2cif'
_cell_length_a    6.40820833866
_cell_length_b    6.4450542467
_cell_length_c    6.40643849701
_cell_angle_alpha    89.7567159473
_cell_angle_beta    91.7510703597
_cell_angle_gamma    89.2823547956

_symmetry_space_group_name_H-M    'P 1'
loop_
_atom_site_label
_atom_site_type_symbol
_atom_site_fract_x
_atom_site_fract_y
_atom_site_fract_z
_atom_site_occupancy
C1   C   0.305684912803173   0.355041812731919   0.477143118535388   1.0
C2   C   0.599374469439802   0.517147985876008   0.292158272046251   1.0
C3   C   0.595654648613575   0.519756021844870   0.678480662009719   1.0
C4   C   0.343663989162032   0.736524380237981   0.475285588544935   1.0
H5   H   0.457536574603964   0.860650582715749   0.478317385137586   1.0
H6   H   0.246461595952198   0.743507654316588   0.333555152501546   1.0
H7   H   0.210279469085847   0.366774164249350   0.334034778586357   1.0
H8   H   0.499902121630768   0.528285628453723   0.151631449815348   1.0
H9   H   0.493473928077712   0.533515902868437   0.810538454702133   1.0
H10   H   0.703891472401800   0.647877181494934   0.675250478905404   1.0
H11   H   0.708223338793800   0.645404513821767   0.299989947554359   1.0
H12   H   0.248747874714880   0.742613191247578   0.612546001191724   1.0
H13   H   0.679219748182554   0.371836333899289   0.682350954359563   1.0
H14   H   0.392516358678471   0.208803553571364   0.483260691510814   1.0
H15   H   0.683474670545024   0.369063925432734   0.298123506735173   1.0
H16   H   0.210084316444146   0.370950820031759   0.613673549460373   1.0
Br17   Br   0.388044538206437   0.052320428228839   0.973837009078402   1.0
Br18   Br   0.033371321812588   0.589921034590702   0.979876186750793   1.0
Br19   Br   0.894509127167218   0.023814599455967   0.557796069442624   1.0
N20   N   0.461138034285419   0.530904720504708   0.479800066720884   1.0
Ge21   Ge   0.989777489398527   0.994035564425779   0.963000676409550   1.0




# HOIP entry ID:                    0273
# Khazana ID:                       2123
# Organic cation source:            B.Saparov et al., Chem. Rev. 116, 4558 (2016)
# Label:                            Tetramethylammonium Germanium Bromide
# Material class:                   Hybrid organic-inorganic perovskite ( MC_ino )
# Geometry class:                   Bulk crystalline materials ( GC_cry )
# Organic cation chemical formula:  (CH3)4N
# Number of atom types:             5
# Total number of atoms:            21
# Atom types:                       C H N  Ge Br
# Number of each atom:              4 12 1  1 3
# Bandgap, HSE06 (eV):              3.4691
# Bandgap, GGA (eV):                2.6041
# Kpoint for VBM:                   0.5, 0.5, 0.5
# Kpoint for CBM:                   0.5, 0.5, 0.5
# Dielectric constant, electronic:  3.2629
# Dielectric constant, ionic:       1.5646
# Dielectric constant, total:       4.8275
# Refractive index:                 1.8064
# Atomization energy (eV/atom):     -4.475
# Relative energy1 (eV/atom):       0.0477
# Relative energy2 (eV/atom):       0.1458
# Volume of the unit cell (A^3):    264.45
# Density (g/cm^3):                 2.4192
# Tool:                             VASP
# Pseudopotential:                  PAW
# Note:                             ENCUT=400eV, k-spacing_relax=0.20/Angstrom, k-spacing_bandgap=0.15/Angstrom
# Created by:                       C.Kim, T.D.Huan, S.Krishnan, R. Ramprasad