data_1
_audit_creation_method   'Generated by vasp2cif'
_cell_length_a    6.39644448213
_cell_length_b    6.55841928177
_cell_length_c    6.36529028621
_cell_angle_alpha    91.2607072319
_cell_angle_beta    86.4546947943
_cell_angle_gamma    89.6524576132

_symmetry_space_group_name_H-M    'P 1'
loop_
_atom_site_label
_atom_site_type_symbol
_atom_site_fract_x
_atom_site_fract_y
_atom_site_fract_z
_atom_site_occupancy
C1   C   0.364006302676295   0.405783642817987   0.322990442376309   1.0
C2   C   0.632737068431560   0.568411960337855   0.535424297570430   1.0
C3   C   0.404668371077712   0.297781243909334   0.689487170091837   1.0
C4   C   0.256149256159759   0.639518316515023   0.618132674814966   1.0
H5   H   0.286580864933207   0.685176018122540   0.778802702058691   1.0
H6   H   0.099994511318123   0.575209116594763   0.612330539467095   1.0
H7   H   0.207096894762039   0.342418184568317   0.332846183314594   1.0
H8   H   0.661513568655700   0.625669011210803   0.692796787634300   1.0
H9   H   0.245855452242040   0.238752486922237   0.696316854925975   1.0
H10   H   0.446738054550984   0.351586415326601   0.844190007738121   1.0
H11   H   0.745084600999725   0.449159529470293   0.484516971405220   1.0
H12   H   0.273753206269696   0.768829128135089   0.514233014728489   1.0
H13   H   0.516827810790026   0.182510884045009   0.627553868751654   1.0
H14   H   0.371886693179888   0.536921144356256   0.220640214383302   1.0
H15   H   0.637036313525030   0.691864338166724   0.424192919242501   1.0
H16   H   0.478039329570876   0.290112797850440   0.267776503503420   1.0
Br17   Br   0.510542122688115   0.917405219611730   0.055370314264692   1.0
Br18   Br   0.918092651423635   0.029830624115213   0.469063686039611   1.0
Br19   Br   0.892865682506439   0.387999227701215   0.010837497216194   1.0
N20   N   0.414737714721007   0.477287251865953   0.542178574819182   1.0
Ge21   Ge   0.909903529518076   0.998923458356678   0.062338775653366   1.0




# HOIP entry ID:                    0274
# Khazana ID:                       2124
# Organic cation source:            B.Saparov et al., Chem. Rev. 116, 4558 (2016)
# Label:                            Tetramethylammonium Germanium Bromide
# Material class:                   Hybrid organic-inorganic perovskite ( MC_ino )
# Geometry class:                   Bulk crystalline materials ( GC_cry )
# Organic cation chemical formula:  (CH3)4N
# Number of atom types:             5
# Total number of atoms:            21
# Atom types:                       C H N  Ge Br
# Number of each atom:              4 12 1  1 3
# Bandgap, HSE06 (eV):              3.6877
# Bandgap, GGA (eV):                2.7818
# Kpoint for VBM:                   0.5, 0.5, 0.5
# Kpoint for CBM:                   0.5, 0.5, 0.5
# Dielectric constant, electronic:  3.2066
# Dielectric constant, ionic:       1.4338
# Dielectric constant, total:       4.6404
# Refractive index:                 1.7907
# Atomization energy (eV/atom):     -4.4753
# Relative energy1 (eV/atom):       0.0474
# Relative energy2 (eV/atom):       0.1455
# Volume of the unit cell (A^3):    266.44
# Density (g/cm^3):                 2.4012
# Tool:                             VASP
# Pseudopotential:                  PAW
# Note:                             ENCUT=400eV, k-spacing_relax=0.20/Angstrom, k-spacing_bandgap=0.15/Angstrom
# Created by:                       C.Kim, T.D.Huan, S.Krishnan, R. Ramprasad