data_1
_audit_creation_method   'Generated by vasp2cif'
_cell_length_a    6.89904639653
_cell_length_b    5.23984701648
_cell_length_c    7.62191217608
_cell_angle_alpha    89.1563164243
_cell_angle_beta    90.6919365064
_cell_angle_gamma    85.7767439211

_symmetry_space_group_name_H-M    'P 1'
loop_
_atom_site_label
_atom_site_type_symbol
_atom_site_fract_x
_atom_site_fract_y
_atom_site_fract_z
_atom_site_occupancy
C1   C   0.438470539339264   0.370381383360467   0.472237803990083   1.0
C2   C   0.563225374912939   0.732113445256942   0.634217804265234   1.0
C3   C   0.357458605806649   0.432465216443809   0.787207638099140   1.0
C4   C   0.211889534525085   0.733173705916428   0.559609302206070   1.0
H5   H   0.238241418966176   0.824564014227064   0.433849051218281   1.0
H6   H   0.181253719321830   0.874929055398546   0.660461373418450   1.0
H7   H   0.461796004154977   0.471490142134783   0.349248179613774   1.0
H8   H   0.588477431647263   0.823236673878668   0.508007294690906   1.0
H9   H   0.238490890347848   0.309879967738290   0.768958738850586   1.0
H10   H   0.319219601193545   0.577206060626793   0.884688921622605   1.0
H11   H   0.527017123697654   0.873090545814151   0.734207246648133   1.0
H12   H   0.090963307707625   0.611384501010470   0.547838733642706   1.0
H13   H   0.490551989712934   0.322078641054702   0.827675519679666   1.0
H14   H   0.570157043530543   0.256176074279466   0.511496677725503   1.0
H15   H   0.690174036928369   0.609316402316175   0.676003993629038   1.0
H16   H   0.314850516963084   0.254542229996218   0.458368651369632   1.0
Br17   Br   0.480783060053604   0.923819890288662   0.126299864705665   1.0
Br18   Br   0.929873911674235   0.241923280320968   0.318161384843371   1.0
Br19   Br   0.881285768955330   0.160502431519710   0.823842215489329   1.0
N20   N   0.392656628596548   0.566729955274901   0.613424324431001   1.0
Ge21   Ge   0.859933491964469   0.880826383142775   0.105045279860739   1.0




# HOIP entry ID:                    0275
# Khazana ID:                       2125
# Organic cation source:            B.Saparov et al., Chem. Rev. 116, 4558 (2016)
# Label:                            Tetramethylammonium Germanium Bromide
# Material class:                   Hybrid organic-inorganic perovskite ( MC_ino )
# Geometry class:                   Bulk crystalline materials ( GC_cry )
# Organic cation chemical formula:  (CH3)4N
# Number of atom types:             5
# Total number of atoms:            21
# Atom types:                       C H N  Ge Br
# Number of each atom:              4 12 1  1 3
# Bandgap, HSE06 (eV):              4.0197
# Bandgap, GGA (eV):                3.0436
# Kpoint for VBM:                   0.4167, 0.4375, 0
# Kpoint for CBM:                   0.5, 0.5, 0
# Dielectric constant, electronic:  3.0587
# Dielectric constant, ionic:       1.6517
# Dielectric constant, total:       4.7105
# Refractive index:                 1.7489
# Atomization energy (eV/atom):     -4.4691
# Relative energy1 (eV/atom):       0.0535
# Relative energy2 (eV/atom):       0.1516
# Volume of the unit cell (A^3):    274.73
# Density (g/cm^3):                 2.3287
# Tool:                             VASP
# Pseudopotential:                  PAW
# Note:                             ENCUT=400eV, k-spacing_relax=0.20/Angstrom, k-spacing_bandgap=0.15/Angstrom
# Created by:                       C.Kim, T.D.Huan, S.Krishnan, R. Ramprasad