data_1
_audit_creation_method   'Generated by vasp2cif'
_cell_length_a    5.82882754031
_cell_length_b    5.67830648184
_cell_length_c    5.74259758742
_cell_angle_alpha    89.3251848763
_cell_angle_beta    82.9295037744
_cell_angle_gamma    88.5454958015

_symmetry_space_group_name_H-M    'P 1'
loop_
_atom_site_label
_atom_site_type_symbol
_atom_site_fract_x
_atom_site_fract_y
_atom_site_fract_z
_atom_site_occupancy
Br1   Br   0.947328428963075   0.992597855510716   0.549440941586347   1.0
Br2   Br   0.470761666987890   0.987025610865864   0.043781502489104   1.0
Br3   Br   0.987529850692482   0.490024209986004   0.051902147662410   1.0
H4   H   0.254981671046622   0.563104291111578   0.579432984445376   1.0
H5   H   0.474771221782547   0.657498703458231   0.397339280435610   1.0
H6   H   0.509332412315423   0.348421926562004   0.791823671681030   1.0
H7   H   0.730238583750712   0.445944203134957   0.609726118506224   1.0
H8   H   0.568849507312734   0.638579863877972   0.788303476870318   1.0
Ge9   Ge   0.010711270652990   0.023318097105523   0.095472180957870   1.0
N10   N   0.415126988755397   0.514930303495717   0.496571627709265   1.0
N11   N   0.565098397740080   0.489584934891433   0.684816067656627   1.0




# HOIP entry ID:                    0276
# Khazana ID:                       2126
# Organic cation source:            B.Saparov et al., Chem. Rev. 116, 4558 (2016)
# Label:                            Hydrazinium Germanium Bromide
# Material class:                   Hybrid organic-inorganic perovskite ( MC_ino )
# Geometry class:                   Bulk crystalline materials ( GC_cry )
# Organic cation chemical formula:  NH2NH3
# Number of atom types:             4
# Total number of atoms:            11
# Atom types:                        H N  Ge Br
# Number of each atom:               5 2  1 3
# Bandgap, HSE06 (eV):              2.1431
# Bandgap, GGA (eV):                1.5009
# Kpoint for VBM:                   0.5, 0.5, 0.5
# Kpoint for CBM:                   0.5, 0.5, 0.4211
# Dielectric constant, electronic:  4.6552
# Dielectric constant, ionic:       11.349
# Dielectric constant, total:       16.0042
# Refractive index:                 2.1576
# Atomization energy (eV/atom):     -3.939
# Relative energy1 (eV/atom):       0.5682
# Relative energy2 (eV/atom):       0.7964
# Volume of the unit cell (A^3):    188.55
# Density (g/cm^3):                 3.0312
# Tool:                             VASP
# Pseudopotential:                  PAW
# Note:                             ENCUT=400eV, k-spacing_relax=0.20/Angstrom, k-spacing_bandgap=0.15/Angstrom
# Created by:                       C.Kim, T.D.Huan, S.Krishnan, R. Ramprasad