data_1
_audit_creation_method   'Generated by vasp2cif'
_cell_length_a    7.85970160767
_cell_length_b    5.68826396768
_cell_length_c    5.69182261625
_cell_angle_alpha    89.0345470022
_cell_angle_beta    47.7486052103
_cell_angle_gamma    94.0431422638

_symmetry_space_group_name_H-M    'P 1'
loop_
_atom_site_label
_atom_site_type_symbol
_atom_site_fract_x
_atom_site_fract_y
_atom_site_fract_z
_atom_site_occupancy
Br1   Br   0.555125965905539   0.016428335285717   0.478954357969947   1.0
Br2   Br   0.042656246256506   0.989660568217815   0.482312767817881   1.0
Br3   Br   0.035887726811453   0.518941780081391   0.991277805564948   1.0
H4   H   0.531963064643278   0.680293619971927   0.151197742222983   1.0
H5   H   0.407177028982289   0.633280277804346   0.008727176775558   1.0
H6   H   0.747861816048733   0.365246383063415   0.895065949880966   1.0
H7   H   0.622257925261778   0.313905755180365   0.749536800703055   1.0
H8   H   0.802273789529750   0.563160437668621   0.624559968154458   1.0
Ge9   Ge   0.099799037583459   0.985463222953008   0.888408538121958   1.0
N10   N   0.470576911879768   0.550562828803741   0.093664328015073   1.0
N11   N   0.674900487097347   0.444206790969730   0.820614564773187   1.0




# HOIP entry ID:                    0277
# Khazana ID:                       2127
# Organic cation source:            B.Saparov et al., Chem. Rev. 116, 4558 (2016)
# Label:                            Hydrazinium Germanium Bromide
# Material class:                   Hybrid organic-inorganic perovskite ( MC_ino )
# Geometry class:                   Bulk crystalline materials ( GC_cry )
# Organic cation chemical formula:  NH2NH3
# Number of atom types:             4
# Total number of atoms:            11
# Atom types:                        H N  Ge Br
# Number of each atom:               5 2  1 3
# Bandgap, HSE06 (eV):              2.3636
# Bandgap, GGA (eV):                1.7989
# Kpoint for VBM:                   0.1, 0.5, 0.5
# Kpoint for CBM:                   -0.1, 0.5, 0.4091
# Dielectric constant, electronic:  4.772
# Dielectric constant, ionic:       10.1162
# Dielectric constant, total:       14.8882
# Refractive index:                 2.1845
# Atomization energy (eV/atom):     -3.9377
# Relative energy1 (eV/atom):       0.5694
# Relative energy2 (eV/atom):       0.7977
# Volume of the unit cell (A^3):    187.18
# Density (g/cm^3):                 3.0534
# Tool:                             VASP
# Pseudopotential:                  PAW
# Note:                             ENCUT=400eV, k-spacing_relax=0.20/Angstrom, k-spacing_bandgap=0.15/Angstrom
# Created by:                       C.Kim, T.D.Huan, S.Krishnan, R. Ramprasad