data_1
_audit_creation_method   'Generated by vasp2cif'
_cell_length_a    3.97435130233
_cell_length_b    6.26899843166
_cell_length_c    7.78498838983
_cell_angle_alpha    82.7435841976
_cell_angle_beta    106.297096446
_cell_angle_gamma    107.506343642

_symmetry_space_group_name_H-M    'P 1'
loop_
_atom_site_label
_atom_site_type_symbol
_atom_site_fract_x
_atom_site_fract_y
_atom_site_fract_z
_atom_site_occupancy
Br1   Br   0.285517950239424   0.004003241719012   0.586439823092661   1.0
Br2   Br   0.585079731769810   0.990256837829016   0.147698553787677   1.0
Br3   Br   0.726010107324100   0.545816865018367   0.868900998063623   1.0
H4   H   0.278344326392485   0.465747795143308   0.514327899634559   1.0
H5   H   0.296044906040144   0.695432737381566   0.382829889192045   1.0
H6   H   0.628309718154277   0.472204228868073   0.312275996789481   1.0
H7   H   0.230246152522661   0.264443665648294   0.270065541736472   1.0
H8   H   0.264199006390619   0.501370090904643   0.142091193965854   1.0
Ge9   Ge   0.920669189271187   0.979580827168000   0.857211134677705   1.0
N10   N   0.181473821813746   0.525061425818045   0.386247892440878   1.0
N11   N   0.342715090081405   0.436122284501657   0.271371076619062   1.0




# HOIP entry ID:                    0278
# Khazana ID:                       2128
# Organic cation source:            B.Saparov et al., Chem. Rev. 116, 4558 (2016)
# Label:                            Hydrazinium Germanium Bromide
# Material class:                   Hybrid organic-inorganic perovskite ( MC_ino )
# Geometry class:                   Bulk crystalline materials ( GC_cry )
# Organic cation chemical formula:  NH2NH3
# Number of atom types:             4
# Total number of atoms:            11
# Atom types:                        H N  Ge Br
# Number of each atom:               5 2  1 3
# Bandgap, HSE06 (eV):              3.557
# Bandgap, GGA (eV):                2.6675
# Kpoint for VBM:                   0, 0.0714, 0.5
# Kpoint for CBM:                   0, 0.5, 0
# Dielectric constant, electronic:  4.2537
# Dielectric constant, ionic:       17.8661
# Dielectric constant, total:       22.1198
# Refractive index:                 2.0624
# Atomization energy (eV/atom):     -3.9543
# Relative energy1 (eV/atom):       0.5529
# Relative energy2 (eV/atom):       0.7811
# Volume of the unit cell (A^3):    177.36
# Density (g/cm^3):                 3.2224
# Tool:                             VASP
# Pseudopotential:                  PAW
# Note:                             ENCUT=400eV, k-spacing_relax=0.20/Angstrom, k-spacing_bandgap=0.15/Angstrom
# Created by:                       C.Kim, T.D.Huan, S.Krishnan, R. Ramprasad