data_1
_audit_creation_method   'Generated by vasp2cif'
_cell_length_a    7.61070582939
_cell_length_b    6.11710378539
_cell_length_c    4.11448321018
_cell_angle_alpha    99.938243182
_cell_angle_beta    77.7181490783
_cell_angle_gamma    98.4023630144

_symmetry_space_group_name_H-M    'P 1'
loop_
_atom_site_label
_atom_site_type_symbol
_atom_site_fract_x
_atom_site_fract_y
_atom_site_fract_z
_atom_site_occupancy
Br1   Br   0.424376553833731   0.089849878662527   0.342385331762920   1.0
Br2   Br   0.867754728015335   0.943657793111178   0.522049776098015   1.0
Br3   Br   0.093420798828312   0.446761532335962   0.085102734322028   1.0
H4   H   0.484174156541613   0.499122431571031   0.140733542692658   1.0
H5   H   0.623129574958668   0.730064330254820   0.077399690582340   1.0
H6   H   0.790913976342182   0.409356370248183   0.937707454822082   1.0
H7   H   0.651271869014678   0.303094317450970   0.665023005371701   1.0
H8   H   0.793541255687721   0.538199678925537   0.612091321257736   1.0
Ge9   Ge   0.145850976201821   0.029780372350089   0.935246348184457   1.0
N10   N   0.563013586080494   0.586090536042008   0.959390689193178   1.0
N11   N   0.708872524495419   0.449162759047695   0.788850105712939   1.0




# HOIP entry ID:                    0279
# Khazana ID:                       2129
# Organic cation source:            B.Saparov et al., Chem. Rev. 116, 4558 (2016)
# Label:                            Hydrazinium Germanium Bromide
# Material class:                   Hybrid organic-inorganic perovskite ( MC_ino )
# Geometry class:                   Bulk crystalline materials ( GC_cry )
# Organic cation chemical formula:  NH2NH3
# Number of atom types:             4
# Total number of atoms:            11
# Atom types:                        H N  Ge Br
# Number of each atom:               5 2  1 3
# Bandgap, HSE06 (eV):              3.7476
# Bandgap, GGA (eV):                2.7535
# Kpoint for VBM:                   0.2105, 0.5, 0.2105
# Kpoint for CBM:                   0.5, 0.5, 0
# Dielectric constant, electronic:  4.1295
# Dielectric constant, ionic:       59.9536
# Dielectric constant, total:       64.0831
# Refractive index:                 2.0321
# Atomization energy (eV/atom):     -3.9315
# Relative energy1 (eV/atom):       0.5756
# Relative energy2 (eV/atom):       0.8039
# Volume of the unit cell (A^3):    183.16
# Density (g/cm^3):                 3.1204
# Tool:                             VASP
# Pseudopotential:                  PAW
# Note:                             ENCUT=400eV, k-spacing_relax=0.20/Angstrom, k-spacing_bandgap=0.15/Angstrom
# Created by:                       C.Kim, T.D.Huan, S.Krishnan, R. Ramprasad