data_1
_audit_creation_method   'Generated by vasp2cif'
_cell_length_a    7.27230426244
_cell_length_b    6.0714031392
_cell_length_c    4.36102606735
_cell_angle_alpha    89.2856326689
_cell_angle_beta    72.4519206257
_cell_angle_gamma    93.3679283754

_symmetry_space_group_name_H-M    'P 1'
loop_
_atom_site_label
_atom_site_type_symbol
_atom_site_fract_x
_atom_site_fract_y
_atom_site_fract_z
_atom_site_occupancy
Br1   Br   0.521542791993703   0.085281154178872   0.652654351284532   1.0
Br2   Br   0.070561264820860   0.917162508041962   0.398014150691019   1.0
Br3   Br   0.925206215721467   0.407109276834092   0.977457622347870   1.0
H4   H   0.543240483185762   0.506873726364752   0.901800775853772   1.0
H5   H   0.393618347970921   0.710687024086724   0.993404987181648   1.0
H6   H   0.221479119714495   0.358291607757486   0.147214401879182   1.0
H7   H   0.366438651452505   0.315488855695023   0.379483276800130   1.0
H8   H   0.210942817670755   0.517265396560028   0.457461740722565   1.0
Ge9   Ge   0.808214091930331   0.991882370964454   0.093933814043062   1.0
N10   N   0.459459185960981   0.593638493700709   0.087274047728052   1.0
N11   N   0.305157029578197   0.435049585815904   0.275550831468259   1.0




# HOIP entry ID:                    0280
# Khazana ID:                       2130
# Organic cation source:            B.Saparov et al., Chem. Rev. 116, 4558 (2016)
# Label:                            Hydrazinium Germanium Bromide
# Material class:                   Hybrid organic-inorganic perovskite ( MC_ino )
# Geometry class:                   Bulk crystalline materials ( GC_cry )
# Organic cation chemical formula:  NH2NH3
# Number of atom types:             4
# Total number of atoms:            11
# Atom types:                        H N  Ge Br
# Number of each atom:               5 2  1 3
# Bandgap, HSE06 (eV):              3.8742
# Bandgap, GGA (eV):                2.9277
# Kpoint for VBM:                   0.1, 0, 0.3
# Kpoint for CBM:                   0.5, 0.1667, 0
# Dielectric constant, electronic:  3.9983
# Dielectric constant, ionic:       6.6029
# Dielectric constant, total:       10.6013
# Refractive index:                 1.9996
# Atomization energy (eV/atom):     -3.936
# Relative energy1 (eV/atom):       0.5712
# Relative energy2 (eV/atom):       0.7994
# Volume of the unit cell (A^3):    183.18
# Density (g/cm^3):                 3.12
# Tool:                             VASP
# Pseudopotential:                  PAW
# Note:                             ENCUT=400eV, k-spacing_relax=0.20/Angstrom, k-spacing_bandgap=0.15/Angstrom
# Created by:                       C.Kim, T.D.Huan, S.Krishnan, R. Ramprasad