data_1
_audit_creation_method   'Generated by vasp2cif'
_cell_length_a    7.6762345433
_cell_length_b    3.99881508028
_cell_length_c    6.09299380363
_cell_angle_alpha    93.9909321647
_cell_angle_beta    91.7332601954
_cell_angle_gamma    73.1988368756

_symmetry_space_group_name_H-M    'P 1'
loop_
_atom_site_label
_atom_site_type_symbol
_atom_site_fract_x
_atom_site_fract_y
_atom_site_fract_z
_atom_site_occupancy
Br1   Br   0.433165537665033   0.148222104960297   0.031380217156858   1.0
Br2   Br   0.104723199827141   0.876407232616991   0.455565092836579   1.0
Br3   Br   0.874702416333697   0.453873006586164   0.963305305591383   1.0
H4   H   0.578901533812576   0.445549033608906   0.721817354894711   1.0
H5   H   0.441048231293323   0.508781250878691   0.504739903048687   1.0
H6   H   0.815743414333937   0.501543858362908   0.518759638039164   1.0
H7   H   0.688792384713302   0.545920620968097   0.290126904061985   1.0
H8   H   0.638598276928256   0.867229477113845   0.495726606187944   1.0
Ge9   Ge   0.149744371349307   0.805696234634937   0.027319827697617   1.0
N10   N   0.573159772535405   0.395767040608526   0.554604645009277   1.0
N11   N   0.683950861208032   0.595300139660623   0.459604505475767   1.0




# HOIP entry ID:                    0281
# Khazana ID:                       2131
# Organic cation source:            B.Saparov et al., Chem. Rev. 116, 4558 (2016)
# Label:                            Hydrazinium Germanium Bromide
# Material class:                   Hybrid organic-inorganic perovskite ( MC_ino )
# Geometry class:                   Bulk crystalline materials ( GC_cry )
# Organic cation chemical formula:  NH2NH3
# Number of atom types:             4
# Total number of atoms:            11
# Atom types:                        H N  Ge Br
# Number of each atom:               5 2  1 3
# Bandgap, HSE06 (eV):              3.3637
# Bandgap, GGA (eV):                2.5268
# Kpoint for VBM:                   0.5, 0.0455, 0.5
# Kpoint for CBM:                   0.5, 0.5, 0.5
# Dielectric constant, electronic:  4.3198
# Dielectric constant, ionic:       38.3237
# Dielectric constant, total:       42.6436
# Refractive index:                 2.0784
# Atomization energy (eV/atom):     -3.9531
# Relative energy1 (eV/atom):       0.5541
# Relative energy2 (eV/atom):       0.7824
# Volume of the unit cell (A^3):    178.6
# Density (g/cm^3):                 3.2001
# Tool:                             VASP
# Pseudopotential:                  PAW
# Note:                             ENCUT=400eV, k-spacing_relax=0.20/Angstrom, k-spacing_bandgap=0.15/Angstrom
# Created by:                       C.Kim, T.D.Huan, S.Krishnan, R. Ramprasad