data_1
_audit_creation_method   'Generated by vasp2cif'
_cell_length_a    7.8524767385
_cell_length_b    3.97064907394
_cell_length_c    5.8899832212
_cell_angle_alpha    96.4852438878
_cell_angle_beta    93.1963110903
_cell_angle_gamma    76.4613252082

_symmetry_space_group_name_H-M    'P 1'
loop_
_atom_site_label
_atom_site_type_symbol
_atom_site_fract_x
_atom_site_fract_y
_atom_site_fract_z
_atom_site_occupancy
Br1   Br   0.421705596798369   0.310851900067638   0.008315766504720   1.0
Br2   Br   0.122212250405997   0.853705016640303   0.543810910747778   1.0
Br3   Br   0.866478703741729   0.576993286492806   0.008206239822131   1.0
H4   H   0.470076871097038   0.691048001945680   0.441680320827717   1.0
H5   H   0.558817027913447   0.723803363429974   0.701293823741545   1.0
H6   H   0.657648708602388   0.153730185359300   0.489039876050752   1.0
H7   H   0.754118110884363   0.368414556901668   0.315346703165221   1.0
H8   H   0.814819609840530   0.363109678586196   0.592726474013896   1.0
Ge9   Ge   0.149204914678660   0.938840347122460   0.987238039814630   1.0
N10   N   0.584202780895679   0.710154017633576   0.530969969154785   1.0
N11   N   0.709085425141716   0.372689645820332   0.478381876156816   1.0




# HOIP entry ID:                    0282
# Khazana ID:                       2132
# Organic cation source:            B.Saparov et al., Chem. Rev. 116, 4558 (2016)
# Label:                            Hydrazinium Germanium Bromide
# Material class:                   Hybrid organic-inorganic perovskite ( MC_ino )
# Geometry class:                   Bulk crystalline materials ( GC_cry )
# Organic cation chemical formula:  NH2NH3
# Number of atom types:             4
# Total number of atoms:            11
# Atom types:                        H N  Ge Br
# Number of each atom:               5 2  1 3
# Bandgap, HSE06 (eV):              3.3706
# Bandgap, GGA (eV):                2.584
# Kpoint for VBM:                   0.5, 0, 0.5
# Kpoint for CBM:                   0.1, 0, 0.5
# Dielectric constant, electronic:  4.3534
# Dielectric constant, ionic:       18.3645
# Dielectric constant, total:       22.7179
# Refractive index:                 2.0865
# Atomization energy (eV/atom):     -3.9556
# Relative energy1 (eV/atom):       0.5516
# Relative energy2 (eV/atom):       0.7798
# Volume of the unit cell (A^3):    177.32
# Density (g/cm^3):                 3.2232
# Tool:                             VASP
# Pseudopotential:                  PAW
# Note:                             ENCUT=400eV, k-spacing_relax=0.20/Angstrom, k-spacing_bandgap=0.15/Angstrom
# Created by:                       C.Kim, T.D.Huan, S.Krishnan, R. Ramprasad