data_1
_audit_creation_method   'Generated by vasp2cif'
_cell_length_a    7.5454950105
_cell_length_b    5.98627864178
_cell_length_c    4.39923064736
_cell_angle_alpha    91.0928692477
_cell_angle_beta    105.187532918
_cell_angle_gamma    72.6115199022

_symmetry_space_group_name_H-M    'P 1'
loop_
_atom_site_label
_atom_site_type_symbol
_atom_site_fract_x
_atom_site_fract_y
_atom_site_fract_z
_atom_site_occupancy
Br1   Br   0.515795521462067   0.984260170076993   0.134348765609502   1.0
Br2   Br   0.068060214603967   0.012755974027442   0.409083219144428   1.0
Br3   Br   0.929918459831278   0.554774043264288   0.854306079122402   1.0
H4   H   0.527757165009312   0.546902547494163   0.475505661965542   1.0
H5   H   0.455660061594649   0.633351999926482   0.789797641772843   1.0
H6   H   0.193901843282738   0.581310035447459   0.403526988289236   1.0
H7   H   0.333899804175587   0.304219736317982   0.366361894810346   1.0
H8   H   0.265222137796023   0.371171947155830   0.695522366837672   1.0
Ge9   Ge   0.807694010236837   0.007115724142317   0.858190244412413   1.0
N10   N   0.488447164965081   0.489646371877015   0.659154852893288   1.0
N11   N   0.306883617042423   0.436891450270025   0.519552285142431   1.0




# HOIP entry ID:                    0283
# Khazana ID:                       2133
# Organic cation source:            B.Saparov et al., Chem. Rev. 116, 4558 (2016)
# Label:                            Hydrazinium Germanium Bromide
# Material class:                   Hybrid organic-inorganic perovskite ( MC_ino )
# Geometry class:                   Bulk crystalline materials ( GC_cry )
# Organic cation chemical formula:  NH2NH3
# Number of atom types:             4
# Total number of atoms:            11
# Atom types:                        H N  Ge Br
# Number of each atom:               5 2  1 3
# Bandgap, HSE06 (eV):              3.814
# Bandgap, GGA (eV):                2.84
# Kpoint for VBM:                   0.5, 0.5, 0
# Kpoint for CBM:                   0.5, 0.0714, 0
# Dielectric constant, electronic:  4.0551
# Dielectric constant, ionic:       7.9144
# Dielectric constant, total:       11.9695
# Refractive index:                 2.0137
# Atomization energy (eV/atom):     -3.9336
# Relative energy1 (eV/atom):       0.5736
# Relative energy2 (eV/atom):       0.8018
# Volume of the unit cell (A^3):    182.63
# Density (g/cm^3):                 3.1294
# Tool:                             VASP
# Pseudopotential:                  PAW
# Note:                             ENCUT=400eV, k-spacing_relax=0.20/Angstrom, k-spacing_bandgap=0.15/Angstrom
# Created by:                       C.Kim, T.D.Huan, S.Krishnan, R. Ramprasad