data_1
_audit_creation_method   'Generated by vasp2cif'
_cell_length_a    7.92964941228
_cell_length_b    3.95271481904
_cell_length_c    5.81676617831
_cell_angle_alpha    90.647808141
_cell_angle_beta    90.8102737815
_cell_angle_gamma    77.1432963798

_symmetry_space_group_name_H-M    'P 1'
loop_
_atom_site_label
_atom_site_type_symbol
_atom_site_fract_x
_atom_site_fract_y
_atom_site_fract_z
_atom_site_occupancy
Br1   Br   0.207363031401201   0.545598282132566   0.003437198358590   1.0
Br2   Br   0.947866853031421   0.198869345240105   0.482129588590389   1.0
Br3   Br   0.654095150863512   0.809893066420749   0.018374740514922   1.0
H4   H   0.571885454989342   0.460597623614362   0.663989341367007   1.0
H5   H   0.580764603453105   0.453310357447442   0.381381027617849   1.0
H6   H   0.287928557325841   0.776330444278862   0.647280389721708   1.0
H7   H   0.419625165479140   0.997373744573864   0.511994033363621   1.0
H8   H   0.296652903259961   0.768045896191808   0.358652862425679   1.0
Ge9   Ge   0.927512548622332   0.184672823983639   0.036670090426185   1.0
N10   N   0.500548609052892   0.443792923349974   0.517071437634975   1.0
N11   N   0.368897122521311   0.773205492766621   0.508389289979078   1.0




# HOIP entry ID:                    0284
# Khazana ID:                       2134
# Organic cation source:            B.Saparov et al., Chem. Rev. 116, 4558 (2016)
# Label:                            Hydrazinium Germanium Bromide
# Material class:                   Hybrid organic-inorganic perovskite ( MC_ino )
# Geometry class:                   Bulk crystalline materials ( GC_cry )
# Organic cation chemical formula:  NH2NH3
# Number of atom types:             4
# Total number of atoms:            11
# Atom types:                        H N  Ge Br
# Number of each atom:               5 2  1 3
# Bandgap, HSE06 (eV):              3.1659
# Bandgap, GGA (eV):                2.41
# Kpoint for VBM:                   0.5, 0, 0.5
# Kpoint for CBM:                   0.1, 0.5, 0.5
# Dielectric constant, electronic:  4.412
# Dielectric constant, ionic:       20.2968
# Dielectric constant, total:       24.7089
# Refractive index:                 2.1005
# Atomization energy (eV/atom):     -3.9558
# Relative energy1 (eV/atom):       0.5514
# Relative energy2 (eV/atom):       0.7796
# Volume of the unit cell (A^3):    177.72
# Density (g/cm^3):                 3.2159
# Tool:                             VASP
# Pseudopotential:                  PAW
# Note:                             ENCUT=400eV, k-spacing_relax=0.20/Angstrom, k-spacing_bandgap=0.15/Angstrom
# Created by:                       C.Kim, T.D.Huan, S.Krishnan, R. Ramprasad