data_1
_audit_creation_method   'Generated by vasp2cif'
_cell_length_a    6.05960181616
_cell_length_b    4.00740613423
_cell_length_c    7.59803785113
_cell_angle_alpha    100.287599578
_cell_angle_beta    87.6215515234
_cell_angle_gamma    80.6518275747

_symmetry_space_group_name_H-M    'P 1'
loop_
_atom_site_label
_atom_site_type_symbol
_atom_site_fract_x
_atom_site_fract_y
_atom_site_fract_z
_atom_site_occupancy
Br1   Br   0.012697544663290   0.561401531371025   0.747832115935701   1.0
Br2   Br   0.539333104444850   0.241858271374909   0.047234157918297   1.0
Br3   Br   0.994980939599181   0.753265168934512   0.302160577090355   1.0
H4   H   0.479889792194499   0.937494298898265   0.363472397320926   1.0
H5   H   0.282492007285370   0.051304723615580   0.530078667480048   1.0
H6   H   0.739389508764539   0.141739252055935   0.546703940955858   1.0
H7   H   0.519858551701219   0.467387569074226   0.554702214151142   1.0
H8   H   0.550071537108607   0.242251060565941   0.724682261343197   1.0
Ge9   Ge   0.978821682146005   0.132933842114412   0.030213427241257   1.0
N10   N   0.449756370246050   0.953988312730949   0.499205278592527   1.0
N11   N   0.570778961846415   0.223375969264353   0.586414961970725   1.0




# HOIP entry ID:                    0285
# Khazana ID:                       2135
# Organic cation source:            B.Saparov et al., Chem. Rev. 116, 4558 (2016)
# Label:                            Hydrazinium Germanium Bromide
# Material class:                   Hybrid organic-inorganic perovskite ( MC_ino )
# Geometry class:                   Bulk crystalline materials ( GC_cry )
# Organic cation chemical formula:  NH2NH3
# Number of atom types:             4
# Total number of atoms:            11
# Atom types:                        H N  Ge Br
# Number of each atom:               5 2  1 3
# Bandgap, HSE06 (eV):              3.3948
# Bandgap, GGA (eV):                2.5642
# Kpoint for VBM:                   0.5, 0, 0.5
# Kpoint for CBM:                   0.5, 0, 0
# Dielectric constant, electronic:  4.2954
# Dielectric constant, ionic:       13.7776
# Dielectric constant, total:       18.073
# Refractive index:                 2.0725
# Atomization energy (eV/atom):     -3.9549
# Relative energy1 (eV/atom):       0.5523
# Relative energy2 (eV/atom):       0.7805
# Volume of the unit cell (A^3):    178.66
# Density (g/cm^3):                 3.199
# Tool:                             VASP
# Pseudopotential:                  PAW
# Note:                             ENCUT=400eV, k-spacing_relax=0.20/Angstrom, k-spacing_bandgap=0.15/Angstrom
# Created by:                       C.Kim, T.D.Huan, S.Krishnan, R. Ramprasad