data_1
_audit_creation_method   'Generated by vasp2cif'
_cell_length_a    9.72755092
_cell_length_b    3.97027779454
_cell_length_c    5.84691013063
_cell_angle_alpha    82.8072895201
_cell_angle_beta    85.3106621193
_cell_angle_gamma    52.1264778245

_symmetry_space_group_name_H-M    'P 1'
loop_
_atom_site_label
_atom_site_type_symbol
_atom_site_fract_x
_atom_site_fract_y
_atom_site_fract_z
_atom_site_occupancy
Br1   Br   0.738719212945107   0.441850473232833   0.009347900305968   1.0
Br2   Br   0.015986469268881   0.440468069875998   0.478973281833639   1.0
Br3   Br   0.290890949634900   0.621720655123333   0.009315090399312   1.0
H4   H   0.338014764270504   0.204976607087758   0.471344048354162   1.0
H5   H   0.443763050823932   0.997067753423138   0.718175387747614   1.0
H6   H   0.695159018840116   0.859938961896006   0.527331978502254   1.0
H7   H   0.580414471345918   0.089656171373704   0.284404692374437   1.0
H8   H   0.526109540368893   0.395017239545489   0.501850845054364   1.0
Ge9   Ge   0.017493855586771   0.538617424493026   0.029366286450120   1.0
N10   N   0.457981532943258   0.969894875134294   0.544053270125239   1.0
N11   N   0.570827133971711   0.091491768814393   0.461637218852907   1.0




# HOIP entry ID:                    0286
# Khazana ID:                       2136
# Organic cation source:            B.Saparov et al., Chem. Rev. 116, 4558 (2016)
# Label:                            Hydrazinium Germanium Bromide
# Material class:                   Hybrid organic-inorganic perovskite ( MC_ino )
# Geometry class:                   Bulk crystalline materials ( GC_cry )
# Organic cation chemical formula:  NH2NH3
# Number of atom types:             4
# Total number of atoms:            11
# Atom types:                        H N  Ge Br
# Number of each atom:               5 2  1 3
# Bandgap, HSE06 (eV):              3.3311
# Bandgap, GGA (eV):                2.5524
# Kpoint for VBM:                   0.5, 0.0385, 0.5
# Kpoint for CBM:                   0, 0.0385, 0.5
# Dielectric constant, electronic:  4.4165
# Dielectric constant, ionic:       24.3209
# Dielectric constant, total:       28.7374
# Refractive index:                 2.1015
# Atomization energy (eV/atom):     -3.9538
# Relative energy1 (eV/atom):       0.5533
# Relative energy2 (eV/atom):       0.7816
# Volume of the unit cell (A^3):    176.84
# Density (g/cm^3):                 3.2319
# Tool:                             VASP
# Pseudopotential:                  PAW
# Note:                             ENCUT=400eV, k-spacing_relax=0.20/Angstrom, k-spacing_bandgap=0.15/Angstrom
# Created by:                       C.Kim, T.D.Huan, S.Krishnan, R. Ramprasad