data_1
_audit_creation_method   'Generated by vasp2cif'
_cell_length_a    7.18251090915
_cell_length_b    6.33034259123
_cell_length_c    4.3165588567
_cell_angle_alpha    72.3948879299
_cell_angle_beta    106.788064708
_cell_angle_gamma    107.19877863

_symmetry_space_group_name_H-M    'P 1'
loop_
_atom_site_label
_atom_site_type_symbol
_atom_site_fract_x
_atom_site_fract_y
_atom_site_fract_z
_atom_site_occupancy
Ge1   Ge   0.842344796998432   0.013540689418448   0.635471464547081   1.0
Br2   Br   0.524092628594445   0.899709989220931   0.107343000913133   1.0
Br3   Br   0.129623407305559   0.073636056147102   0.310805646837508   1.0
Br4   Br   0.843631537661572   0.440984893934903   0.469048479672594   1.0
N5   N   0.436017876210712   0.442175224698055   0.771042536670635   1.0
H6   H   0.310736659415085   0.436149046186301   0.580050566900688   1.0
H7   H   0.418724347646183   0.290332310080387   0.948773835149147   1.0
H8   H   0.559671642514139   0.459090555223916   0.679780337422756   1.0
H9   H   0.456717103653901   0.577991235089975   0.874214131886383   1.0




# HOIP entry ID:                    0287
# Khazana ID:                       2137
# Organic cation source:            T.D.Huan et al., Phys. Rev. B 93,094105(2016)
# Label:                            Ammonium Germanium Bromide
# Material class:                   Hybrid organic-inorganic perovskite ( MC_ino )
# Geometry class:                   Bulk crystalline materials ( GC_cry )
# Organic cation chemical formula:  NH4
# Number of atom types:             4
# Total number of atoms:            9
# Atom types:                        H N  Ge Br
# Number of each atom:               4 1  1 3
# Bandgap, HSE06 (eV):              3.737
# Bandgap, GGA (eV):                2.794
# Kpoint for VBM:                   -0.2, 0.1429, 0.25
# Kpoint for CBM:                   0.5, 0.5, 0
# Dielectric constant, electronic:  4.0025
# Dielectric constant, ionic:       9.5188
# Dielectric constant, total:       13.5213
# Refractive index:                 2.0006
# Atomization energy (eV/atom):     -3.7177
# Relative energy1 (eV/atom):       0.5519
# Relative energy2 (eV/atom):       0.8309
# Volume of the unit cell (A^3):    174.37
# Density (g/cm^3):                 3.1347
# Tool:                             VASP
# Pseudopotential:                  PAW
# Note:                             ENCUT=400eV, k-spacing_relax=0.20/Angstrom, k-spacing_bandgap=0.15/Angstrom
# Created by:                       C.Kim, T.D.Huan, S.Krishnan, R. Ramprasad