data_1
_audit_creation_method   'Generated by vasp2cif'
_cell_length_a    5.77075081823
_cell_length_b    5.76708546907
_cell_length_c    5.77898437262
_cell_angle_alpha    83.2697172842
_cell_angle_beta    83.3107100563
_cell_angle_gamma    83.419415102

_symmetry_space_group_name_H-M    'P 1'
loop_
_atom_site_label
_atom_site_type_symbol
_atom_site_fract_x
_atom_site_fract_y
_atom_site_fract_z
_atom_site_occupancy
Ge1   Ge   0.999503237307479   0.999520920005430   0.055741768588192   1.0
Br2   Br   0.005640258010665   0.901416553329454   0.511573756237588   1.0
Br3   Br   0.455297117628589   0.006160869538725   0.956577416438876   1.0
Br4   Br   0.901119777494742   0.455526426584392   0.060680574519800   1.0
N5   N   0.523936827574239   0.524562431629811   0.577605918113640   1.0
H6   H   0.368708237244554   0.625829404059814   0.542796472852345   1.0
H7   H   0.488053228194197   0.370716254490631   0.681428599774527   1.0
H8   H   0.622181907457922   0.485828097219716   0.422083771445258   1.0
H9   H   0.619879409087574   0.618759043142056   0.666461722029737   1.0




# HOIP entry ID:                    0288
# Khazana ID:                       2138
# Organic cation source:            T.D.Huan et al., Phys. Rev. B 93,094105(2016)
# Label:                            Ammonium Germanium Bromide
# Material class:                   Hybrid organic-inorganic perovskite ( MC_ino )
# Geometry class:                   Bulk crystalline materials ( GC_cry )
# Organic cation chemical formula:  NH4
# Number of atom types:             4
# Total number of atoms:            9
# Atom types:                        H N  Ge Br
# Number of each atom:               4 1  1 3
# Bandgap, HSE06 (eV):              2.7559
# Bandgap, GGA (eV):                2.0807
# Kpoint for VBM:                   0.5, 0.5, 0.5
# Kpoint for CBM:                   0.5, 0.5, 0.4211
# Dielectric constant, electronic:  4.1567
# Dielectric constant, ionic:       6.377
# Dielectric constant, total:       10.5337
# Refractive index:                 2.0388
# Atomization energy (eV/atom):     -3.7211
# Relative energy1 (eV/atom):       0.5485
# Relative energy2 (eV/atom):       0.8274
# Volume of the unit cell (A^3):    188.71
# Density (g/cm^3):                 2.8965
# Tool:                             VASP
# Pseudopotential:                  PAW
# Note:                             ENCUT=400eV, k-spacing_relax=0.20/Angstrom, k-spacing_bandgap=0.15/Angstrom
# Created by:                       C.Kim, T.D.Huan, S.Krishnan, R. Ramprasad