data_1
_audit_creation_method   'Generated by vasp2cif'
_cell_length_a    7.15668131266
_cell_length_b    6.31653848761
_cell_length_c    4.31574480529
_cell_angle_alpha    107.737616099
_cell_angle_beta    106.863156646
_cell_angle_gamma    73.483889634

_symmetry_space_group_name_H-M    'P 1'
loop_
_atom_site_label
_atom_site_type_symbol
_atom_site_fract_x
_atom_site_fract_y
_atom_site_fract_z
_atom_site_occupancy
Ge1   Ge   0.146058702278559   0.041789044647636   0.311260564386018   1.0
Br2   Br   0.462521561831835   0.934458653785292   0.843402286895184   1.0
Br3   Br   0.858050060787079   0.101519384526888   0.635196459972541   1.0
Br4   Br   0.149380599201599   0.469669714477185   0.479166762379641   1.0
N5   N   0.561274197808586   0.477991777122483   0.184020602248118   1.0
H6   H   0.687139412442178   0.479016854106867   0.374997887135436   1.0
H7   H   0.581732747094080   0.325814908446915   0.006985667870367   1.0
H8   H   0.439218646408150   0.488799089426095   0.275948038065401   1.0
H9   H   0.535364072147942   0.614030573460610   0.078571731047397   1.0




# HOIP entry ID:                    0289
# Khazana ID:                       2139
# Organic cation source:            T.D.Huan et al., Phys. Rev. B 93,094105(2016)
# Label:                            Ammonium Germanium Bromide
# Material class:                   Hybrid organic-inorganic perovskite ( MC_ino )
# Geometry class:                   Bulk crystalline materials ( GC_cry )
# Organic cation chemical formula:  NH4
# Number of atom types:             4
# Total number of atoms:            9
# Atom types:                        H N  Ge Br
# Number of each atom:               4 1  1 3
# Bandgap, HSE06 (eV):              3.7148
# Bandgap, GGA (eV):                2.7747
# Kpoint for VBM:                   -0.2, -0.1429, 0.25
# Kpoint for CBM:                   0.5, 0.5, 0
# Dielectric constant, electronic:  4.0355
# Dielectric constant, ionic:       10.1411
# Dielectric constant, total:       14.1766
# Refractive index:                 2.0089
# Atomization energy (eV/atom):     -3.7175
# Relative energy1 (eV/atom):       0.5521
# Relative energy2 (eV/atom):       0.831
# Volume of the unit cell (A^3):    173.67
# Density (g/cm^3):                 3.1473
# Tool:                             VASP
# Pseudopotential:                  PAW
# Note:                             ENCUT=400eV, k-spacing_relax=0.20/Angstrom, k-spacing_bandgap=0.15/Angstrom
# Created by:                       C.Kim, T.D.Huan, S.Krishnan, R. Ramprasad