data_1
_audit_creation_method   'Generated by vasp2cif'
_cell_length_a    4.30551959621
_cell_length_b    6.319566035
_cell_length_c    7.18249162747
_cell_angle_alpha    73.2500055643
_cell_angle_beta    73.2386325107
_cell_angle_gamma    72.2965656827

_symmetry_space_group_name_H-M    'P 1'
loop_
_atom_site_label
_atom_site_type_symbol
_atom_site_fract_x
_atom_site_fract_y
_atom_site_fract_z
_atom_site_occupancy
Ge1   Ge   0.682739481463003   0.044107301022486   0.151455231169564   1.0
Br2   Br   0.148828403012772   0.933717789090437   0.468212711543458   1.0
Br3   Br   0.355016491235055   0.103397367165151   0.864302266815230   1.0
Br4   Br   0.512448269921329   0.471624021282558   0.153010175091460   1.0
N5   N   0.810074679141628   0.475936232531460   0.562631904205880   1.0
H6   H   0.619348142769987   0.469433722508327   0.688142770996912   1.0
H7   H   0.990964191165872   0.325039290902623   0.579118108235953   1.0
H8   H   0.718512328099102   0.491010452672548   0.439559022760548   1.0
H9   H   0.910518013191258   0.613153822824366   0.541887809180942   1.0




# HOIP entry ID:                    0290
# Khazana ID:                       2140
# Organic cation source:            T.D.Huan et al., Phys. Rev. B 93,094105(2016)
# Label:                            Ammonium Germanium Bromide
# Material class:                   Hybrid organic-inorganic perovskite ( MC_ino )
# Geometry class:                   Bulk crystalline materials ( GC_cry )
# Organic cation chemical formula:  NH4
# Number of atom types:             4
# Total number of atoms:            9
# Atom types:                        H N  Ge Br
# Number of each atom:               4 1  1 3
# Bandgap, HSE06 (eV):              3.7096
# Bandgap, GGA (eV):                2.7815
# Kpoint for VBM:                   0.2778, 0.0714, 0.1667
# Kpoint for CBM:                   0, -0.2857, 0.4167
# Dielectric constant, electronic:  4.0339
# Dielectric constant, ionic:       11.0858
# Dielectric constant, total:       15.1197
# Refractive index:                 2.0085
# Atomization energy (eV/atom):     -3.7175
# Relative energy1 (eV/atom):       0.5521
# Relative energy2 (eV/atom):       0.8311
# Volume of the unit cell (A^3):    173.9
# Density (g/cm^3):                 3.1432
# Tool:                             VASP
# Pseudopotential:                  PAW
# Note:                             ENCUT=400eV, k-spacing_relax=0.20/Angstrom, k-spacing_bandgap=0.15/Angstrom
# Created by:                       C.Kim, T.D.Huan, S.Krishnan, R. Ramprasad