data_1
_audit_creation_method   'Generated by vasp2cif'
_cell_length_a    6.03292982799
_cell_length_b    6.27254584785
_cell_length_c    6.54020595361
_cell_angle_alpha    87.6709611821
_cell_angle_beta    88.3806737169
_cell_angle_gamma    100.831390485

_symmetry_space_group_name_H-M    'P 1'
loop_
_atom_site_label
_atom_site_type_symbol
_atom_site_fract_x
_atom_site_fract_y
_atom_site_fract_z
_atom_site_occupancy
C1   C   0.645362094305305   0.326196123430691   0.532640606704362   1.0
C2   C   0.425815825113609   0.574617031397025   0.706823409552079   1.0
C3   C   0.379864899627243   0.514772840303969   0.337693441222022   1.0
H4   H   0.766302005612268   0.349787051238167   0.654076014723785   1.0
H5   H   0.548558048618993   0.596040162384369   0.826472342829163   1.0
H6   H   0.466339911037650   0.481327606305150   0.197876380300734   1.0
H7   H   0.324521141101272   0.669462922611338   0.322510903116779   1.0
H8   H   0.357508400652669   0.721715846750001   0.680169248581400   1.0
H9   H   0.674140985300447   0.657504152465251   0.477291110368569   1.0
H10   H   0.237548332127176   0.383795980638396   0.378385761790724   1.0
H11   H   0.510444937179926   0.187746084566399   0.572192359900654   1.0
H12   H   0.289929987254723   0.437191432348499   0.746457015408254   1.0
H13   H   0.728391887747406   0.305364438499844   0.387234562666244   1.0
Br14   Br   0.453924533868729   0.040191481510249   0.031181488668338   1.0
Br15   Br   0.937968693560443   0.561351805432011   0.027675423080950   1.0
Br16   Br   0.999654396193215   0.946583861734460   0.481917990936495   1.0
N17   N   0.542099138249732   0.527582795616532   0.510569056925597   1.0
Ge18   Ge   0.019724782449167   0.975828382767752   0.071692883223768   1.0




# HOIP entry ID:                    0291
# Khazana ID:                       2141
# Organic cation source:            A. Mancini et al., J. Solid State Chem. 240, 55 (2016)
# Label:                            Trimethylammonium Germanium Bromide
# Material class:                   Hybrid organic-inorganic perovskite ( MC_ino )
# Geometry class:                   Bulk crystalline materials ( GC_cry )
# Organic cation chemical formula:  (CH3)3NH
# Number of atom types:             5
# Total number of atoms:            18
# Atom types:                       C H N  Ge Br
# Number of each atom:              3 10 1  1 3
# Bandgap, HSE06 (eV):              3.2061
# Bandgap, GGA (eV):                2.3621
# Kpoint for VBM:                   0.5, 0.5, 0.5
# Kpoint for CBM:                   0.5, 0.5, 0.5
# Dielectric constant, electronic:  3.4135
# Dielectric constant, ionic:       1.959
# Dielectric constant, total:       5.3725
# Refractive index:                 1.8476
# Atomization energy (eV/atom):     -4.3868
# Relative energy1 (eV/atom):       0.0787
# Relative energy2 (eV/atom):       0.2182
# Volume of the unit cell (A^3):    242.72
# Density (g/cm^3):                 2.5399
# Tool:                             VASP
# Pseudopotential:                  PAW
# Note:                             ENCUT=400eV, k-spacing_relax=0.20/Angstrom, k-spacing_bandgap=0.15/Angstrom
# Created by:                       C.Kim, T.D.Huan, S.Krishnan, R. Ramprasad