data_1
_audit_creation_method   'Generated by vasp2cif'
_cell_length_a    6.16400000076
_cell_length_b    6.20031759065
_cell_length_c    6.4813966781
_cell_angle_alpha    96.7024306147
_cell_angle_beta    87.625485296
_cell_angle_gamma    82.6616859139

_symmetry_space_group_name_H-M    'P 1'
loop_
_atom_site_label
_atom_site_type_symbol
_atom_site_fract_x
_atom_site_fract_y
_atom_site_fract_z
_atom_site_occupancy
C1   C   0.332871907637163   0.336860497552607   0.474990394159974   1.0
C2   C   0.557665531145041   0.598236144071308   0.325053096071180   1.0
C3   C   0.649242862715127   0.461503831732365   0.660778131771309   1.0
H4   H   0.196600972730579   0.393048229689889   0.384092773254082   1.0
H5   H   0.422120349549267   0.646013180640452   0.230725906575728   1.0
H6   H   0.576562655695454   0.426356689269454   0.807049960337828   1.0
H7   H   0.743027348074548   0.597792077436026   0.685882179002483   1.0
H8   H   0.646107450929541   0.736025256043064   0.370196911295402   1.0
H9   H   0.362663927018296   0.653959653143559   0.597477077664813   1.0
H10   H   0.751658021755730   0.316076561045854   0.582636915242027   1.0
H11   H   0.437957387627357   0.199831335091780   0.386157356443533   1.0
H12   H   0.668912013971315   0.462455217789405   0.241285687694905   1.0
H13   H   0.273694218091393   0.292702838148557   0.622354756264400   1.0
Br14   Br   0.554195882173403   0.003853894241111   0.969163220579773   1.0
Br15   Br   0.069728079182291   0.552983114344642   0.994360845293961   1.0
Br16   Br   0.026883759994874   0.918615080259492   0.552253050117123   1.0
N17   N   0.467498366686918   0.522764344458153   0.520961727216118   1.0
Ge18   Ge   0.980069265021662   0.968392055042315   0.960580011015487   1.0




# HOIP entry ID:                    0292
# Khazana ID:                       2142
# Organic cation source:            A. Mancini et al., J. Solid State Chem. 240, 55 (2016)
# Label:                            Trimethylammonium Germanium Bromide
# Material class:                   Hybrid organic-inorganic perovskite ( MC_ino )
# Geometry class:                   Bulk crystalline materials ( GC_cry )
# Organic cation chemical formula:  (CH3)3NH
# Number of atom types:             5
# Total number of atoms:            18
# Atom types:                       C H N  Ge Br
# Number of each atom:              3 10 1  1 3
# Bandgap, HSE06 (eV):              3.3833
# Bandgap, GGA (eV):                2.5035
# Kpoint for VBM:                   0.5, 0.5, 0.5
# Kpoint for CBM:                   0.5, 0.5, 0.5
# Dielectric constant, electronic:  3.3895
# Dielectric constant, ionic:       1.9429
# Dielectric constant, total:       5.3324
# Refractive index:                 1.8411
# Atomization energy (eV/atom):     -4.3854
# Relative energy1 (eV/atom):       0.08
# Relative energy2 (eV/atom):       0.2195
# Volume of the unit cell (A^3):    243.6
# Density (g/cm^3):                 2.5307
# Tool:                             VASP
# Pseudopotential:                  PAW
# Note:                             ENCUT=400eV, k-spacing_relax=0.20/Angstrom, k-spacing_bandgap=0.15/Angstrom
# Created by:                       C.Kim, T.D.Huan, S.Krishnan, R. Ramprasad