data_1
_audit_creation_method   'Generated by vasp2cif'
_cell_length_a    4.74307901128
_cell_length_b    7.71890303264
_cell_length_c    7.18982204606
_cell_angle_alpha    103.351260955
_cell_angle_beta    76.9115199906
_cell_angle_gamma    88.2180693543

_symmetry_space_group_name_H-M    'P 1'
loop_
_atom_site_label
_atom_site_type_symbol
_atom_site_fract_x
_atom_site_fract_y
_atom_site_fract_z
_atom_site_occupancy
C1   C   0.499255287278231   0.568258264423491   0.366793583945068   1.0
C2   C   0.737571278901065   0.785304187541662   0.584626386012616   1.0
C3   C   0.699504644816173   0.472759925442709   0.623562563840920   1.0
H4   H   0.399133734452718   0.682121999958774   0.332371154897039   1.0
H5   H   0.937137226485262   0.748091293619453   0.469549864026661   1.0
H6   H   0.561913963951980   0.362346850201554   0.612281979444916   1.0
H7   H   0.725527389001051   0.517715954390795   0.773380452160481   1.0
H8   H   0.615014570121687   0.896959907648103   0.562258752331282   1.0
H9   H   0.363394069110825   0.666270699064704   0.674892867035190   1.0
H10   H   0.910172940835835   0.432684432396350   0.520257473521127   1.0
H11   H   0.706570466349014   0.522928967532600   0.260240842941990   1.0
H12   H   0.781504724016123   0.818540410845188   0.730345850128032   1.0
H13   H   0.360209942441493   0.458629733229380   0.364856074715590   1.0
Br14   Br   0.400688894676165   0.201956051954340   0.955644886163036   1.0
Br15   Br   0.089271477801141   0.728785805446051   0.011155731570980   1.0
Br16   Br   0.215857088838440   0.090553825172023   0.457256777378262   1.0
N17   N   0.557897157478109   0.626282814903441   0.569521019231914   1.0
Ge18   Ge   0.974635143444772   0.077388876229428   0.160343740654909   1.0




# HOIP entry ID:                    0296
# Khazana ID:                       2146
# Organic cation source:            A. Mancini et al., J. Solid State Chem. 240, 55 (2016)
# Label:                            Trimethylammonium Germanium Bromide
# Material class:                   Hybrid organic-inorganic perovskite ( MC_ino )
# Geometry class:                   Bulk crystalline materials ( GC_cry )
# Organic cation chemical formula:  (CH3)3NH
# Number of atom types:             5
# Total number of atoms:            18
# Atom types:                       C H N  Ge Br
# Number of each atom:              3 10 1  1 3
# Bandgap, HSE06 (eV):              4.0596
# Bandgap, GGA (eV):                3.0972
# Kpoint for VBM:                   0.375, -0.1, 0.1667
# Kpoint for CBM:                   0, 0.1, 0.5
# Dielectric constant, electronic:  3.1909
# Dielectric constant, ionic:       1.726
# Dielectric constant, total:       4.9169
# Refractive index:                 1.7863
# Atomization energy (eV/atom):     -4.3723
# Relative energy1 (eV/atom):       0.0932
# Relative energy2 (eV/atom):       0.2326
# Volume of the unit cell (A^3):    248.49
# Density (g/cm^3):                 2.4809
# Tool:                             VASP
# Pseudopotential:                  PAW
# Note:                             ENCUT=400eV, k-spacing_relax=0.20/Angstrom, k-spacing_bandgap=0.15/Angstrom
# Created by:                       C.Kim, T.D.Huan, S.Krishnan, R. Ramprasad