data_1
_audit_creation_method   'Generated by vasp2cif'
_cell_length_a    6.56148497118
_cell_length_b    4.88420230932
_cell_length_c    7.83046186267
_cell_angle_alpha    90.0881340586
_cell_angle_beta    95.2590347509
_cell_angle_gamma    75.4713698707

_symmetry_space_group_name_H-M    'P 1'
loop_
_atom_site_label
_atom_site_type_symbol
_atom_site_fract_x
_atom_site_fract_y
_atom_site_fract_z
_atom_site_occupancy
C1   C   0.527403952862308   0.875157242874025   0.400768633147209   1.0
C2   C   0.443431419366718   0.914910487765738   0.707391795282405   1.0
C3   C   0.270817066862179   0.627498924964691   0.507110866494557   1.0
H4   H   0.588334608274458   0.061952458722509   0.419005840804992   1.0
H5   H   0.315847529783369   0.931485080299609   0.788706454595939   1.0
H6   H   0.214835219344224   0.608741087771286   0.373646407919061   1.0
H7   H   0.142677688842937   0.651909052075524   0.589651105254759   1.0
H8   H   0.569993904448076   0.726510922410966   0.740765594851815   1.0
H9   H   0.233589772663315   0.055987838196806   0.488194008013096   1.0
H10   H   0.400084256851592   0.446235757410193   0.549024050961933   1.0
H11   H   0.653803534359810   0.684142026900297   0.430964593391352   1.0
H12   H   0.504650813076069   0.101924648207699   0.716873189952629   1.0
H13   H   0.455592508887008   0.871540854846849   0.270009192987828   1.0
Br14   Br   0.924697407724530   0.196329142887365   0.243523185249536   1.0
Br15   Br   0.897886542075831   0.243198792398857   0.733288053288767   1.0
Br16   Br   0.346322964418192   0.447261766140308   0.032504907270948   1.0
N17   N   0.359466821069006   0.884563458773002   0.523401158990708   1.0
Ge18   Ge   0.944253989090448   0.561330457354295   0.003290961542675   1.0




# HOIP entry ID:                    0299
# Khazana ID:                       2149
# Organic cation source:            A. Mancini et al., J. Solid State Chem. 240, 55 (2016)
# Label:                            Trimethylammonium Germanium Bromide
# Material class:                   Hybrid organic-inorganic perovskite ( MC_ino )
# Geometry class:                   Bulk crystalline materials ( GC_cry )
# Organic cation chemical formula:  (CH3)3NH
# Number of atom types:             5
# Total number of atoms:            18
# Atom types:                       C H N  Ge Br
# Number of each atom:              3 10 1  1 3
# Bandgap, HSE06 (eV):              4.1936
# Bandgap, GGA (eV):                3.2185
# Kpoint for VBM:                   0.0833, 0.3125, 0.4
# Kpoint for CBM:                   0.3333, 0, 0.5
# Dielectric constant, electronic:  3.2715
# Dielectric constant, ionic:       2.0893
# Dielectric constant, total:       5.3608
# Refractive index:                 1.8087
# Atomization energy (eV/atom):     -4.3764
# Relative energy1 (eV/atom):       0.0891
# Relative energy2 (eV/atom):       0.2286
# Volume of the unit cell (A^3):    241.84
# Density (g/cm^3):                 2.5491
# Tool:                             VASP
# Pseudopotential:                  PAW
# Note:                             ENCUT=400eV, k-spacing_relax=0.20/Angstrom, k-spacing_bandgap=0.15/Angstrom
# Created by:                       C.Kim, T.D.Huan, S.Krishnan, R. Ramprasad