data_1
_audit_creation_method   'Generated by vasp2cif'
_cell_length_a    6.31014519564
_cell_length_b    6.01580808733
_cell_length_c    6.00175445188
_cell_angle_alpha    90.6604514688
_cell_angle_beta    88.8133635577
_cell_angle_gamma    86.9376720508

_symmetry_space_group_name_H-M    'P 1'
loop_
_atom_site_label
_atom_site_type_symbol
_atom_site_fract_x
_atom_site_fract_y
_atom_site_fract_z
_atom_site_occupancy
Br1   Br   0.011822734054391   0.982946927549989   0.587304550960660   1.0
Br2   Br   0.566041042956151   0.064685419948347   0.060239292614554   1.0
Br3   Br   0.028589754310843   0.462175109441617   0.060445061037420   1.0
H4   H   0.383970372916231   0.859737452338038   0.572962710756038   1.0
H5   H   0.660086421103912   0.566638219125984   0.283813570345032   1.0
H6   H   0.651976142694160   0.849214582451516   0.558427099261223   1.0
H7   H   0.334942156388990   0.324531744546015   0.566864938122613   1.0
H8   H   0.678206715546771   0.563073737101547   0.819128511437853   1.0
H9   H   0.396845790512245   0.602465659339671   0.864333060633967   1.0
H10   H   0.376744511463258   0.606874179479355   0.273367095262955   1.0
H11   H   0.614942736968956   0.261277307139984   0.549714429216642   1.0
C12   C   0.524000299766804   0.572236396229854   0.741435984393824   1.0
C13   C   0.511853822902602   0.574837622911261   0.379606926809195   1.0
C14   C   0.491071264615734   0.394100952644997   0.559123791066149   1.0
Ge15   Ge   0.977364074508550   0.041164596513156   0.041151112084677   1.0
N16   N   0.519582159290522   0.756090093238704   0.563491865997179   1.0




# HOIP entry ID:                    0300
# Khazana ID:                       2150
# Organic cation source:            B. Zhou et al., Angew. Chem. Int. Ed. 50, 11441 (2011)
# Label:                            Azetidinium Germanium Bromide
# Material class:                   Hybrid organic-inorganic perovskite ( MC_ino )
# Geometry class:                   Bulk crystalline materials ( GC_cry )
# Organic cation chemical formula:  C3H6N2
# Number of atom types:             5
# Total number of atoms:            16
# Atom types:                       C H N  Ge Br
# Number of each atom:              3 8 1  1 3
# Bandgap, HSE06 (eV):              2.8197
# Bandgap, GGA (eV):                2.0482
# Kpoint for VBM:                   0.5, 0.5, 0.5
# Kpoint for CBM:                   0.5, 0.5, 0.5
# Dielectric constant, electronic:  3.7899
# Dielectric constant, ionic:       3.8747
# Dielectric constant, total:       7.6646
# Refractive index:                 1.9468
# Atomization energy (eV/atom):     -4.4418
# Relative energy1 (eV/atom):       0.128
# Relative energy2 (eV/atom):       0.2849
# Volume of the unit cell (A^3):    227.44
# Density (g/cm^3):                 2.6958
# Tool:                             VASP
# Pseudopotential:                  PAW
# Note:                             ENCUT=400eV, k-spacing_relax=0.20/Angstrom, k-spacing_bandgap=0.15/Angstrom
# Created by:                       C.Kim, T.D.Huan, S.Krishnan, R. Ramprasad