data_1
_audit_creation_method   'Generated by vasp2cif'
_cell_length_a    6.06211270109
_cell_length_b    6.04285642522
_cell_length_c    6.17975097917
_cell_angle_alpha    94.5905056131
_cell_angle_beta    82.7981959368
_cell_angle_gamma    91.5131836167

_symmetry_space_group_name_H-M    'P 1'
loop_
_atom_site_label
_atom_site_type_symbol
_atom_site_fract_x
_atom_site_fract_y
_atom_site_fract_z
_atom_site_occupancy
Br1   Br   0.485213150554522   0.075052311076050   0.971125128882086   1.0
Br2   Br   0.973480582103583   0.110378787800833   0.480611252628421   1.0
Br3   Br   0.955563672288910   0.569295156243555   0.960778000968801   1.0
H4   H   0.519548663345745   0.879236277353812   0.307732153504602   1.0
H5   H   0.692637286529227   0.687952092528924   0.666300294265710   1.0
H6   H   0.414391750172321   0.908061955723795   0.572174761417358   1.0
H7   H   0.506696129706604   0.294054848538650   0.412362754346937   1.0
H8   H   0.142329767815966   0.632963403121295   0.495931521247883   1.0
H9   H   0.299849707353644   0.563456933258813   0.235161702710712   1.0
H10   H   0.775217896212553   0.610629507980576   0.381876764254699   1.0
H11   H   0.390791042276590   0.405155678650203   0.677287403095619   1.0
C12   C   0.306431652548063   0.598021550179702   0.409769054688340   1.0
C13   C   0.636910525825279   0.631304121710528   0.511111856355811   1.0
C14   C   0.457472652583093   0.444743595388218   0.512766377343269   1.0
Ge15   Ge   0.928280531198169   0.139910107781759   0.908082679016061   1.0
N16   N   0.470134989485800   0.795083672663388   0.444858295273647   1.0




# HOIP entry ID:                    0301
# Khazana ID:                       2151
# Organic cation source:            B. Zhou et al., Angew. Chem. Int. Ed. 50, 11441 (2011)
# Label:                            Azetidinium Germanium Bromide
# Material class:                   Hybrid organic-inorganic perovskite ( MC_ino )
# Geometry class:                   Bulk crystalline materials ( GC_cry )
# Organic cation chemical formula:  C3H6N2
# Number of atom types:             5
# Total number of atoms:            16
# Atom types:                       C H N  Ge Br
# Number of each atom:              3 8 1  1 3
# Bandgap, HSE06 (eV):              2.8287
# Bandgap, GGA (eV):                2.0604
# Kpoint for VBM:                   0.5, 0.5, 0.5
# Kpoint for CBM:                   0.5, 0.5, 0.5
# Dielectric constant, electronic:  3.8118
# Dielectric constant, ionic:       3.2783
# Dielectric constant, total:       7.09
# Refractive index:                 1.9524
# Atomization energy (eV/atom):     -4.4407
# Relative energy1 (eV/atom):       0.1291
# Relative energy2 (eV/atom):       0.286
# Volume of the unit cell (A^3):    223.84
# Density (g/cm^3):                 2.7391
# Tool:                             VASP
# Pseudopotential:                  PAW
# Note:                             ENCUT=400eV, k-spacing_relax=0.20/Angstrom, k-spacing_bandgap=0.15/Angstrom
# Created by:                       C.Kim, T.D.Huan, S.Krishnan, R. Ramprasad