data_1
_audit_creation_method   'Generated by vasp2cif'
_cell_length_a    5.98086963487
_cell_length_b    6.24461721952
_cell_length_c    6.14051699728
_cell_angle_alpha    93.2915102698
_cell_angle_beta    91.0540747585
_cell_angle_gamma    99.9925256386

_symmetry_space_group_name_H-M    'P 1'
loop_
_atom_site_label
_atom_site_type_symbol
_atom_site_fract_x
_atom_site_fract_y
_atom_site_fract_z
_atom_site_occupancy
Br1   Br   0.513161433423988   0.026007952954828   0.996541001384877   1.0
Br2   Br   0.990911067833530   0.038887255133631   0.432525764607021   1.0
Br3   Br   0.024707146512547   0.499268043008477   0.001680860614215   1.0
H4   H   0.420729221071568   0.547065170433086   0.193577856134120   1.0
H5   H   0.819855794608486   0.525807093585151   0.460730124479248   1.0
H6   H   0.599373523460521   0.760236542243504   0.310556168794321   1.0
H7   H   0.426203153205293   0.354167190328170   0.741077583875182   1.0
H8   H   0.333859611751649   0.783650685730137   0.587022504628607   1.0
H9   H   0.183806155666595   0.519539792997072   0.491750310927600   1.0
H10   H   0.601138178795750   0.298139775538147   0.383768529970688   1.0
H11   H   0.610186878598320   0.608720748712244   0.792936843078088   1.0
C12   C   0.348750663143974   0.617474079022728   0.535356359068572   1.0
C13   C   0.638972266660382   0.462239860663224   0.459883948921920   1.0
C14   C   0.507928836409945   0.501291241343296   0.669009923166058   1.0
Ge15   Ge   0.957067462704018   0.076938765551404   0.005003929975210   1.0
N16   N   0.504598606153401   0.610545802754793   0.337148290374344   1.0




# HOIP entry ID:                    0302
# Khazana ID:                       2152
# Organic cation source:            B. Zhou et al., Angew. Chem. Int. Ed. 50, 11441 (2011)
# Label:                            Azetidinium Germanium Bromide
# Material class:                   Hybrid organic-inorganic perovskite ( MC_ino )
# Geometry class:                   Bulk crystalline materials ( GC_cry )
# Organic cation chemical formula:  C3H6N2
# Number of atom types:             5
# Total number of atoms:            16
# Atom types:                       C H N  Ge Br
# Number of each atom:              3 8 1  1 3
# Bandgap, HSE06 (eV):              2.9622
# Bandgap, GGA (eV):                2.1701
# Kpoint for VBM:                   0.5, 0.5, 0.5
# Kpoint for CBM:                   0.5, 0.5, 0.5
# Dielectric constant, electronic:  3.75
# Dielectric constant, ionic:       4.4692
# Dielectric constant, total:       8.2192
# Refractive index:                 1.9365
# Atomization energy (eV/atom):     -4.4381
# Relative energy1 (eV/atom):       0.1317
# Relative energy2 (eV/atom):       0.2886
# Volume of the unit cell (A^3):    225.39
# Density (g/cm^3):                 2.7203
# Tool:                             VASP
# Pseudopotential:                  PAW
# Note:                             ENCUT=400eV, k-spacing_relax=0.20/Angstrom, k-spacing_bandgap=0.15/Angstrom
# Created by:                       C.Kim, T.D.Huan, S.Krishnan, R. Ramprasad