data_1
_audit_creation_method   'Generated by vasp2cif'
_cell_length_a    6.08705591846
_cell_length_b    6.05812716272
_cell_length_c    6.10469575334
_cell_angle_alpha    86.1115584671
_cell_angle_beta    82.0916857368
_cell_angle_gamma    93.8105916711

_symmetry_space_group_name_H-M    'P 1'
loop_
_atom_site_label
_atom_site_type_symbol
_atom_site_fract_x
_atom_site_fract_y
_atom_site_fract_z
_atom_site_occupancy
Br1   Br   0.016742265397490   0.053090219954981   0.471049618950843   1.0
Br2   Br   0.593340683330936   0.052008512363507   0.044644723471279   1.0
Br3   Br   0.051591578031960   0.540391295281026   0.013731260328868   1.0
H4   H   0.364350962983806   0.816747116688020   0.706420982172432   1.0
H5   H   0.397386389478989   0.647184458458717   0.274991374684170   1.0
H6   H   0.572361363542484   0.885974948377154   0.497406088211370   1.0
H7   H   0.468082220924749   0.256710726422142   0.588352924386129   1.0
H8   H   0.792379930629579   0.637333473510068   0.662327539154525   1.0
H9   H   0.554247841302399   0.531332663469513   0.855047613832717   1.0
H10   H   0.205474387803825   0.540021414846308   0.513081650840583   1.0
H11   H   0.676260364014297   0.392994874314915   0.380623624172984   1.0
C12   C   0.618346159107901   0.577491161457331   0.681792053892238   1.0
C13   C   0.379220110051499   0.583473473361181   0.447346199051424   1.0
C14   C   0.544649908271090   0.416799758800792   0.514541162559539   1.0
Ge15   Ge   0.024621223091870   0.107483103092378   0.040611144200895   1.0
N16   N   0.477614612037129   0.755992799601977   0.589832040089995   1.0




# HOIP entry ID:                    0303
# Khazana ID:                       2153
# Organic cation source:            B. Zhou et al., Angew. Chem. Int. Ed. 50, 11441 (2011)
# Label:                            Azetidinium Germanium Bromide
# Material class:                   Hybrid organic-inorganic perovskite ( MC_ino )
# Geometry class:                   Bulk crystalline materials ( GC_cry )
# Organic cation chemical formula:  C3H6N2
# Number of atom types:             5
# Total number of atoms:            16
# Atom types:                       C H N  Ge Br
# Number of each atom:              3 8 1  1 3
# Bandgap, HSE06 (eV):              2.8045
# Bandgap, GGA (eV):                1.9935
# Kpoint for VBM:                   0.5, 0.5, 0.5
# Kpoint for CBM:                   0.5, 0.5, 0.5
# Dielectric constant, electronic:  3.8424
# Dielectric constant, ionic:       3.6339
# Dielectric constant, total:       7.4763
# Refractive index:                 1.9602
# Atomization energy (eV/atom):     -4.439
# Relative energy1 (eV/atom):       0.1308
# Relative energy2 (eV/atom):       0.2877
# Volume of the unit cell (A^3):    221.81
# Density (g/cm^3):                 2.7642
# Tool:                             VASP
# Pseudopotential:                  PAW
# Note:                             ENCUT=400eV, k-spacing_relax=0.20/Angstrom, k-spacing_bandgap=0.15/Angstrom
# Created by:                       C.Kim, T.D.Huan, S.Krishnan, R. Ramprasad