data_1
_audit_creation_method   'Generated by vasp2cif'
_cell_length_a    8.33130855605
_cell_length_b    6.09558892688
_cell_length_c    4.71060216457
_cell_angle_alpha    89.5216978502
_cell_angle_beta    84.3131930866
_cell_angle_gamma    89.4720865176

_symmetry_space_group_name_H-M    'P 1'
loop_
_atom_site_label
_atom_site_type_symbol
_atom_site_fract_x
_atom_site_fract_y
_atom_site_fract_z
_atom_site_occupancy
Br1   Br   0.784893614136166   0.657289225155239   0.215931024965762   1.0
Br2   Br   0.011311661453561   0.109423869654485   0.747527191284426   1.0
Br3   Br   0.264327539591562   0.657474001938176   0.133429670956652   1.0
H4   H   0.607365725513120   0.017088584666965   0.064878265803507   1.0
H5   H   0.324910834019839   0.294236557138049   0.995546633382062   1.0
H6   H   0.331111807855429   0.016833765327668   0.992403516413887   1.0
H7   H   0.377420524267187   0.017005176576944   0.499001373545440   1.0
H8   H   0.377508908941664   0.311611588221908   0.503626612406158   1.0
H9   H   0.675794507328057   0.301919245177331   0.535919702343371   1.0
H10   H   0.672769335395230   0.011254866717323   0.543997563791514   1.0
H11   H   0.601892949114280   0.312519196242349   0.055117067798740   1.0
C12   C   0.426785462505613   0.162091386354525   0.590842720780060   1.0
C13   C   0.571492562261831   0.162266229368484   0.950587470563370   1.0
C14   C   0.610403338145936   0.159181160030357   0.623556418176371   1.0
Ge15   Ge   0.008830539239419   0.688236776227939   0.790313104829842   1.0
N16   N   0.388690690231080   0.158068371202312   0.916371662958802   1.0




# HOIP entry ID:                    0304
# Khazana ID:                       2154
# Organic cation source:            B. Zhou et al., Angew. Chem. Int. Ed. 50, 11441 (2011)
# Label:                            Azetidinium Germanium Bromide
# Material class:                   Hybrid organic-inorganic perovskite ( MC_ino )
# Geometry class:                   Bulk crystalline materials ( GC_cry )
# Organic cation chemical formula:  C3H6N2
# Number of atom types:             5
# Total number of atoms:            16
# Atom types:                       C H N  Ge Br
# Number of each atom:              3 8 1  1 3
# Bandgap, HSE06 (eV):              3.5762
# Bandgap, GGA (eV):                2.5857
# Kpoint for VBM:                   0.5, 0.5, 0.3421
# Kpoint for CBM:                   0.5, 0.5, 0
# Dielectric constant, electronic:  3.4258
# Dielectric constant, ionic:       2.7479
# Dielectric constant, total:       6.1737
# Refractive index:                 1.8509
# Atomization energy (eV/atom):     -4.4282
# Relative energy1 (eV/atom):       0.1416
# Relative energy2 (eV/atom):       0.2985
# Volume of the unit cell (A^3):    238.03
# Density (g/cm^3):                 2.5758
# Tool:                             VASP
# Pseudopotential:                  PAW
# Note:                             ENCUT=400eV, k-spacing_relax=0.20/Angstrom, k-spacing_bandgap=0.15/Angstrom
# Created by:                       C.Kim, T.D.Huan, S.Krishnan, R. Ramprasad