data_1
_audit_creation_method   'Generated by vasp2cif'
_cell_length_a    8.31071566627
_cell_length_b    5.93583169559
_cell_length_c    4.71831643196
_cell_angle_alpha    94.6591090924
_cell_angle_beta    85.3157002297
_cell_angle_gamma    86.0309122901

_symmetry_space_group_name_H-M    'P 1'
loop_
_atom_site_label
_atom_site_type_symbol
_atom_site_fract_x
_atom_site_fract_y
_atom_site_fract_z
_atom_site_occupancy
Br1   Br   0.198346542924497   0.637016139838117   0.774679167377663   1.0
Br2   Br   0.969217370149202   0.130807943025964   0.277348381513988   1.0
Br3   Br   0.718821626299309   0.695549711214639   0.859292258082910   1.0
H4   H   0.405002562494289   0.996766956670641   0.940086313331470   1.0
H5   H   0.596448115574781   0.378640092447732   0.057299513369628   1.0
H6   H   0.663083340256016   0.104225165371254   0.052125438898393   1.0
H7   H   0.644595453649934   0.146721399509367   0.548855179825047   1.0
H8   H   0.508890616257361   0.396499868160788   0.549508183882111   1.0
H9   H   0.280172342404768   0.142392646144145   0.542334515300574   1.0
H10   H   0.419106290192310   0.902012322085639   0.436086410740572   1.0
H11   H   0.318771286003646   0.278695591773754   0.057293392621652   1.0
C12   C   0.539839951147982   0.222901506806181   0.458169368107392   1.0
C13   C   0.401397029535040   0.138201104937806   0.101645299380571   1.0
C14   C   0.392153219286492   0.082216499201500   0.415506946846712   1.0
Ge15   Ge   0.972951249488304   0.693499600181589   0.199296892626712   1.0
N16   N   0.571643004336067   0.224653452630861   0.132762738094677   1.0




# HOIP entry ID:                    0305
# Khazana ID:                       2155
# Organic cation source:            B. Zhou et al., Angew. Chem. Int. Ed. 50, 11441 (2011)
# Label:                            Azetidinium Germanium Bromide
# Material class:                   Hybrid organic-inorganic perovskite ( MC_ino )
# Geometry class:                   Bulk crystalline materials ( GC_cry )
# Organic cation chemical formula:  C3H6N2
# Number of atom types:             5
# Total number of atoms:            16
# Atom types:                       C H N  Ge Br
# Number of each atom:              3 8 1  1 3
# Bandgap, HSE06 (eV):              3.5129
# Bandgap, GGA (eV):                2.5097
# Kpoint for VBM:                   0.5, 0.5, 0.3158
# Kpoint for CBM:                   0.5, 0.5, 0
# Dielectric constant, electronic:  3.551
# Dielectric constant, ionic:       2.7839
# Dielectric constant, total:       6.3349
# Refractive index:                 1.8844
# Atomization energy (eV/atom):     -4.4297
# Relative energy1 (eV/atom):       0.1401
# Relative energy2 (eV/atom):       0.297
# Volume of the unit cell (A^3):    230.54
# Density (g/cm^3):                 2.6595
# Tool:                             VASP
# Pseudopotential:                  PAW
# Note:                             ENCUT=400eV, k-spacing_relax=0.20/Angstrom, k-spacing_bandgap=0.15/Angstrom
# Created by:                       C.Kim, T.D.Huan, S.Krishnan, R. Ramprasad