data_1
_audit_creation_method   'Generated by vasp2cif'
_cell_length_a    8.1718011905
_cell_length_b    5.97828301957
_cell_length_c    4.7270642221
_cell_angle_alpha    91.3861888114
_cell_angle_beta    95.0757614264
_cell_angle_gamma    84.1982080193

_symmetry_space_group_name_H-M    'P 1'
loop_
_atom_site_label
_atom_site_type_symbol
_atom_site_fract_x
_atom_site_fract_y
_atom_site_fract_z
_atom_site_occupancy
Br1   Br   0.760453068923582   0.689054929099136   0.174975063925089   1.0
Br2   Br   0.026821416808410   0.214138940710804   0.765113143904372   1.0
Br3   Br   0.237759412161864   0.664617801708523   0.244943077461336   1.0
H4   H   0.670732338796682   0.160681757538448   0.098117909002042   1.0
H5   H   0.315443483932405   0.108951202724946   0.940857757683858   1.0
H6   H   0.473079782988222   0.903841740295455   0.982645765615544   1.0
H7   H   0.540233411323293   0.946758726318187   0.515973627969636   1.0
H8   H   0.349826064431483   0.127580722924982   0.465309644009302   1.0
H9   H   0.499096701945717   0.459499637484633   0.618178789552566   1.0
H10   H   0.689957215739454   0.287172861650141   0.608773754456116   1.0
H11   H   0.498622506487855   0.372455892361316   0.124068167944195   1.0
C12   C   0.467353575056073   0.095122020214205   0.592219664713561   1.0
C13   C   0.557332815545472   0.242409735204013   0.992993798168058   1.0
C14   C   0.566012135925874   0.298171578911308   0.678173723363983   1.0
Ge15   Ge   0.000539766039431   0.654304543546594   0.826542288122056   1.0
N16   N   0.437426303894149   0.062217909307336   0.904373824108312   1.0




# HOIP entry ID:                    0306
# Khazana ID:                       2156
# Organic cation source:            B. Zhou et al., Angew. Chem. Int. Ed. 50, 11441 (2011)
# Label:                            Azetidinium Germanium Bromide
# Material class:                   Hybrid organic-inorganic perovskite ( MC_ino )
# Geometry class:                   Bulk crystalline materials ( GC_cry )
# Organic cation chemical formula:  C3H6N2
# Number of atom types:             5
# Total number of atoms:            16
# Atom types:                       C H N  Ge Br
# Number of each atom:              3 8 1  1 3
# Bandgap, HSE06 (eV):              3.6031
# Bandgap, GGA (eV):                2.6105
# Kpoint for VBM:                   0.5, 0.5, 0.3158
# Kpoint for CBM:                   0.5, 0.5, 0
# Dielectric constant, electronic:  3.589
# Dielectric constant, ionic:       4.0119
# Dielectric constant, total:       7.6009
# Refractive index:                 1.8945
# Atomization energy (eV/atom):     -4.4295
# Relative energy1 (eV/atom):       0.1403
# Relative energy2 (eV/atom):       0.2972
# Volume of the unit cell (A^3):    228.82
# Density (g/cm^3):                 2.6795
# Tool:                             VASP
# Pseudopotential:                  PAW
# Note:                             ENCUT=400eV, k-spacing_relax=0.20/Angstrom, k-spacing_bandgap=0.15/Angstrom
# Created by:                       C.Kim, T.D.Huan, S.Krishnan, R. Ramprasad