data_1
_audit_creation_method   'Generated by vasp2cif'
_cell_length_a    6.05286990695
_cell_length_b    4.24558391787
_cell_length_c    8.65441732368
_cell_angle_alpha    86.4536883937
_cell_angle_beta    90.8803078317
_cell_angle_gamma    96.5416382847

_symmetry_space_group_name_H-M    'P 1'
loop_
_atom_site_label
_atom_site_type_symbol
_atom_site_fract_x
_atom_site_fract_y
_atom_site_fract_z
_atom_site_occupancy
Br1   Br   0.816785733850701   0.795792647220352   0.811313048443068   1.0
Br2   Br   0.394129822346933   0.086539546189712   0.082919152283893   1.0
Br3   Br   0.878811806038492   0.756164386000286   0.286546741779702   1.0
H4   H   0.027716456840174   0.178153126054120   0.522045443046970   1.0
H5   H   0.301004168723765   0.273439121700903   0.326600105064891   1.0
H6   H   0.377781914819160   0.633544425264049   0.380635215925906   1.0
H7   H   0.575512962569761   0.063302146352122   0.483948910542971   1.0
H8   H   0.653642640926172   0.449059732459389   0.549687438960262   1.0
H9   H   0.388621488488688   0.349743528624309   0.764231463531281   1.0
H10   H   0.303397271965409   0.962853245785013   0.706620579217962   1.0
H11   H   0.109580276768838   0.565663315971918   0.586703883581954   1.0
C12   C   0.515127070909024   0.268032549293380   0.532463763985525   1.0
C13   C   0.167137093210449   0.344468430574409   0.556335047202495   1.0
C14   C   0.343856650442589   0.209532727526117   0.664945535126876   1.0
Ge15   Ge   0.822680989278275   0.194209697548686   0.044320883839994   1.0
N16   N   0.338563652821662   0.402981373435203   0.423192787466178   1.0




# HOIP entry ID:                    0307
# Khazana ID:                       2157
# Organic cation source:            B. Zhou et al., Angew. Chem. Int. Ed. 50, 11441 (2011)
# Label:                            Azetidinium Germanium Bromide
# Material class:                   Hybrid organic-inorganic perovskite ( MC_ino )
# Geometry class:                   Bulk crystalline materials ( GC_cry )
# Organic cation chemical formula:  C3H6N2
# Number of atom types:             5
# Total number of atoms:            16
# Atom types:                       C H N  Ge Br
# Number of each atom:              3 8 1  1 3
# Bandgap, HSE06 (eV):              4.0286
# Bandgap, GGA (eV):                3.0625
# Kpoint for VBM:                   -0.1667, 0.1667, 0.5
# Kpoint for CBM:                   -0.4167, 0, 0.375
# Dielectric constant, electronic:  3.7494
# Dielectric constant, ionic:       5.306
# Dielectric constant, total:       9.0554
# Refractive index:                 1.9363
# Atomization energy (eV/atom):     -4.4254
# Relative energy1 (eV/atom):       0.1444
# Relative energy2 (eV/atom):       0.3013
# Volume of the unit cell (A^3):    220.52
# Density (g/cm^3):                 2.7804
# Tool:                             VASP
# Pseudopotential:                  PAW
# Note:                             ENCUT=400eV, k-spacing_relax=0.20/Angstrom, k-spacing_bandgap=0.15/Angstrom
# Created by:                       C.Kim, T.D.Huan, S.Krishnan, R. Ramprasad