data_1
_audit_creation_method   'Generated by vasp2cif'
_cell_length_a    8.48983533702
_cell_length_b    4.27754854809
_cell_length_c    6.93769599818
_cell_angle_alpha    62.0953577674
_cell_angle_beta    91.1753529441
_cell_angle_gamma    93.7960698182

_symmetry_space_group_name_H-M    'P 1'
loop_
_atom_site_label
_atom_site_type_symbol
_atom_site_fract_x
_atom_site_fract_y
_atom_site_fract_z
_atom_site_occupancy
Br1   Br   0.797707734410454   0.896501363687118   0.149832452244891   1.0
Br2   Br   0.076478015734407   0.256651704725665   0.563310006181304   1.0
Br3   Br   0.283325886126431   0.998277483029121   0.080440759095002   1.0
H4   H   0.567528614154367   0.418291521925111   0.813244211560373   1.0
H5   H   0.348770067511882   0.676844189701039   0.573874166761466   1.0
H6   H   0.322260905878984   0.932181240664552   0.687465089139393   1.0
H7   H   0.531810956627585   0.103052034264750   0.316194390585423   1.0
H8   H   0.485835114379074   0.393386826685846   0.421726781551887   1.0
H9   H   0.711798721284120   0.163727146089329   0.686446931716315   1.0
H10   H   0.757346784421039   0.899744284955129   0.563839032425548   1.0
H11   H   0.523831013708667   0.680904221232668   0.940620678000939   1.0
C12   C   0.524246313362783   0.131647173536852   0.463238715394902   1.0
C13   C   0.547635167894899   0.683614898132994   0.786518827767428   1.0
C14   C   0.661647377286494   0.987320607985283   0.625049288667348   1.0
Ge15   Ge   0.035449727933046   0.517510910382457   0.146171930801108   1.0
N16   N   0.408227599285820   0.836994393001996   0.629116738106612   1.0




# HOIP entry ID:                    0308
# Khazana ID:                       2158
# Organic cation source:            B. Zhou et al., Angew. Chem. Int. Ed. 50, 11441 (2011)
# Label:                            Azetidinium Germanium Bromide
# Material class:                   Hybrid organic-inorganic perovskite ( MC_ino )
# Geometry class:                   Bulk crystalline materials ( GC_cry )
# Organic cation chemical formula:  C3H6N2
# Number of atom types:             5
# Total number of atoms:            16
# Atom types:                       C H N  Ge Br
# Number of each atom:              3 8 1  1 3
# Bandgap, HSE06 (eV):              4.0976
# Bandgap, GGA (eV):                3.1203
# Kpoint for VBM:                   0.5, 0.2, 0.0714
# Kpoint for CBM:                   0.5, 0, 0.5
# Dielectric constant, electronic:  3.6332
# Dielectric constant, ionic:       5.3191
# Dielectric constant, total:       8.9523
# Refractive index:                 1.9061
# Atomization energy (eV/atom):     -4.4261
# Relative energy1 (eV/atom):       0.1437
# Relative energy2 (eV/atom):       0.3006
# Volume of the unit cell (A^3):    222.15
# Density (g/cm^3):                 2.76
# Tool:                             VASP
# Pseudopotential:                  PAW
# Note:                             ENCUT=400eV, k-spacing_relax=0.20/Angstrom, k-spacing_bandgap=0.15/Angstrom
# Created by:                       C.Kim, T.D.Huan, S.Krishnan, R. Ramprasad