data_1
_audit_creation_method   'Generated by vasp2cif'
_cell_length_a    6.92666411774
_cell_length_b    4.27693731861
_cell_length_c    9.25074609137
_cell_angle_alpha    113.573429701
_cell_angle_beta    101.337978878
_cell_angle_gamma    62.162479979

_symmetry_space_group_name_H-M    'P 1'
loop_
_atom_site_label
_atom_site_type_symbol
_atom_site_fract_x
_atom_site_fract_y
_atom_site_fract_z
_atom_site_occupancy
Br1   Br   0.146200058969524   0.098907546238926   0.193731646494809   1.0
Br2   Br   0.558883714485047   0.180387272326341   0.915131164094072   1.0
Br3   Br   0.076192559823175   0.717418912361783   0.708646680767434   1.0
H4   H   0.809334616004116   0.854179898965987   0.424386629210122   1.0
H5   H   0.568536641434071   0.329302338167944   0.642388540052840   1.0
H6   H   0.681859384646353   0.612237162486515   0.669596673768800   1.0
H7   H   0.311390219836352   0.572085849757173   0.459014588213732   1.0
H8   H   0.416496592051444   0.909423943206866   0.505663510556462   1.0
H9   H   0.682613548303174   0.456289988507903   0.280541912757816   1.0
H10   H   0.560388831276992   0.145715055508498   0.234340575681048   1.0
H11   H   0.936371420245651   0.161559542144547   0.468780649177467   1.0
C12   C   0.458429194771450   0.609297354664605   0.467148855216437   1.0
C13   C   0.782311755076071   0.139542751506057   0.444442025108976   1.0
C14   C   0.621093169674972   0.329136747472080   0.330290683348622   1.0
Ge15   Ge   0.141328285191504   0.483356940158604   0.956311471578730   1.0
N16   N   0.624030008209937   0.430828696525919   0.583354393972147   1.0




# HOIP entry ID:                    0309
# Khazana ID:                       2159
# Organic cation source:            B. Zhou et al., Angew. Chem. Int. Ed. 50, 11441 (2011)
# Label:                            Azetidinium Germanium Bromide
# Material class:                   Hybrid organic-inorganic perovskite ( MC_ino )
# Geometry class:                   Bulk crystalline materials ( GC_cry )
# Organic cation chemical formula:  C3H6N2
# Number of atom types:             5
# Total number of atoms:            16
# Atom types:                       C H N  Ge Br
# Number of each atom:              3 8 1  1 3
# Bandgap, HSE06 (eV):              4.1031
# Bandgap, GGA (eV):                3.1261
# Kpoint for VBM:                   0.0833, 0.1818, 0.2
# Kpoint for CBM:                   -0.4167, 0, 0.4
# Dielectric constant, electronic:  3.636
# Dielectric constant, ionic:       5.5654
# Dielectric constant, total:       9.2014
# Refractive index:                 1.9068
# Atomization energy (eV/atom):     -4.426
# Relative energy1 (eV/atom):       0.1438
# Relative energy2 (eV/atom):       0.3007
# Volume of the unit cell (A^3):    222.1
# Density (g/cm^3):                 2.7606
# Tool:                             VASP
# Pseudopotential:                  PAW
# Note:                             ENCUT=400eV, k-spacing_relax=0.20/Angstrom, k-spacing_bandgap=0.15/Angstrom
# Created by:                       C.Kim, T.D.Huan, S.Krishnan, R. Ramprasad