data_1
_audit_creation_method   'Generated by vasp2cif'
_cell_length_a    6.2278823436
_cell_length_b    4.30278684763
_cell_length_c    8.95364744483
_cell_angle_alpha    106.484608653
_cell_angle_beta    87.6138700738
_cell_angle_gamma    100.108130569

_symmetry_space_group_name_H-M    'P 1'
loop_
_atom_site_label
_atom_site_type_symbol
_atom_site_fract_x
_atom_site_fract_y
_atom_site_fract_z
_atom_site_occupancy
Br1   Br   0.856128689936256   0.747371200984162   0.816990572703169   1.0
Br2   Br   0.473458916629063   0.262973732105166   0.100548539069735   1.0
Br3   Br   0.943025123185215   0.050259066552414   0.283965987147489   1.0
H4   H   0.251029377741979   0.547283966733758   0.546785044383036   1.0
H5   H   0.476856727076502   0.706487326872548   0.346068654100947   1.0
H6   H   0.334696827559981   0.998083689268888   0.349490855699031   1.0
H7   H   0.690836866270182   0.041818499521554   0.569498734705405   1.0
H8   H   0.588532591032724   0.376703020800363   0.536431448741858   1.0
H9   H   0.270593607809566   0.282302752400817   0.715958625890813   1.0
H10   H   0.412543898872400   0.009904836935625   0.771617850523612   1.0
H11   H   0.074481127411033   0.801288332117423   0.511564490629802   1.0
C12   C   0.543925841720501   0.135690756185781   0.555943787372506   1.0
C13   C   0.239917742127645   0.792510222627328   0.541220390950286   1.0
C14   C   0.360750080120170   0.078963965247283   0.672743832508701   1.0
Ge15   Ge   0.888986438155236   0.321295653403084   0.046553535000434   1.0
N16   N   0.403896144351606   0.889272978243739   0.420347650572999   1.0




# HOIP entry ID:                    0310
# Khazana ID:                       2160
# Organic cation source:            B. Zhou et al., Angew. Chem. Int. Ed. 50, 11441 (2011)
# Label:                            Azetidinium Germanium Bromide
# Material class:                   Hybrid organic-inorganic perovskite ( MC_ino )
# Geometry class:                   Bulk crystalline materials ( GC_cry )
# Organic cation chemical formula:  C3H6N2
# Number of atom types:             5
# Total number of atoms:            16
# Atom types:                       C H N  Ge Br
# Number of each atom:              3 8 1  1 3
# Bandgap, HSE06 (eV):              3.9696
# Bandgap, GGA (eV):                3.0032
# Kpoint for VBM:                   -0.25, 0.25, 0
# Kpoint for CBM:                   0.3333, 0, 0.5
# Dielectric constant, electronic:  3.6102
# Dielectric constant, ionic:       5.3276
# Dielectric constant, total:       8.9377
# Refractive index:                 1.9
# Atomization energy (eV/atom):     -4.4249
# Relative energy1 (eV/atom):       0.1449
# Relative energy2 (eV/atom):       0.3018
# Volume of the unit cell (A^3):    226.49
# Density (g/cm^3):                 2.7071
# Tool:                             VASP
# Pseudopotential:                  PAW
# Note:                             ENCUT=400eV, k-spacing_relax=0.20/Angstrom, k-spacing_bandgap=0.15/Angstrom
# Created by:                       C.Kim, T.D.Huan, S.Krishnan, R. Ramprasad