data_1
_audit_creation_method   'Generated by vasp2cif'
_cell_length_a    8.3370726721
_cell_length_b    4.73137375875
_cell_length_c    6.27377201134
_cell_angle_alpha    73.1379929653
_cell_angle_beta    90.1409944747
_cell_angle_gamma    99.8489323502

_symmetry_space_group_name_H-M    'P 1'
loop_
_atom_site_label
_atom_site_type_symbol
_atom_site_fract_x
_atom_site_fract_y
_atom_site_fract_z
_atom_site_occupancy
Br1   Br   0.801111313562480   0.781556817210031   0.192373611519812   1.0
Br2   Br   0.094501804371888   0.295180847205543   0.536947229226399   1.0
Br3   Br   0.278514569434535   0.976718788624929   0.058742969507691   1.0
H4   H   0.598589334781579   0.592397621387846   0.656306693677124   1.0
H5   H   0.349987701622169   0.732301165062630   0.485299955073422   1.0
H6   H   0.318110764249056   0.895283193177598   0.680761841892576   1.0
H7   H   0.573551454697785   0.124910081855163   0.314293959024468   1.0
H8   H   0.471588206387324   0.339984450830606   0.442721992384065   1.0
H9   H   0.631057058065778   0.167600181234377   0.794610174127627   1.0
H10   H   0.771418816858422   0.085068018431755   0.617916718376712   1.0
H11   H   0.504398606781685   0.626001951555956   0.904090489452187   1.0
C12   C   0.527911555896885   0.142259336312463   0.471418211486665   1.0
C13   C   0.545392253933699   0.736835676005391   0.731053825122927   1.0
C14   C   0.643459135986099   0.059820433337592   0.665422095672191   1.0
Ge15   Ge   0.032804346526611   0.500044327486641   0.124749820616699   1.0
N16   N   0.406863076843948   0.852737110281453   0.585710412839447   1.0




# HOIP entry ID:                    0311
# Khazana ID:                       2161
# Organic cation source:            B. Zhou et al., Angew. Chem. Int. Ed. 50, 11441 (2011)
# Label:                            Azetidinium Germanium Bromide
# Material class:                   Hybrid organic-inorganic perovskite ( MC_ino )
# Geometry class:                   Bulk crystalline materials ( GC_cry )
# Organic cation chemical formula:  C3H6N2
# Number of atom types:             5
# Total number of atoms:            16
# Atom types:                       C H N  Ge Br
# Number of each atom:              3 8 1  1 3
# Bandgap, HSE06 (eV):              4.0797
# Bandgap, GGA (eV):                3.103
# Kpoint for VBM:                   0, 0.3333, 0.2857
# Kpoint for CBM:                   0.4, 0, 0.4286
# Dielectric constant, electronic:  3.3643
# Dielectric constant, ionic:       2.34
# Dielectric constant, total:       5.7042
# Refractive index:                 1.8342
# Atomization energy (eV/atom):     -4.4255
# Relative energy1 (eV/atom):       0.1443
# Relative energy2 (eV/atom):       0.3012
# Volume of the unit cell (A^3):    233.05
# Density (g/cm^3):                 2.6309
# Tool:                             VASP
# Pseudopotential:                  PAW
# Note:                             ENCUT=400eV, k-spacing_relax=0.20/Angstrom, k-spacing_bandgap=0.15/Angstrom
# Created by:                       C.Kim, T.D.Huan, S.Krishnan, R. Ramprasad