data_1
_audit_creation_method   'Generated by vasp2cif'
_cell_length_a    5.96127249884
_cell_length_b    4.17839640205
_cell_length_c    8.89358042649
_cell_angle_alpha    87.1694437728
_cell_angle_beta    89.2121464957
_cell_angle_gamma    90.5999381231

_symmetry_space_group_name_H-M    'P 1'
loop_
_atom_site_label
_atom_site_type_symbol
_atom_site_fract_x
_atom_site_fract_y
_atom_site_fract_z
_atom_site_occupancy
Br1   Br   0.909318874273720   0.797141073412480   0.796547684207761   1.0
Br2   Br   0.461140655034301   0.166881460127351   0.056886165025478   1.0
Br3   Br   0.937602229414749   0.762446387437581   0.264441688982866   1.0
H4   H   0.217901737780896   0.968193498949566   0.515063169025293   1.0
H5   H   0.444749238050860   0.244286362154200   0.320938208679102   1.0
H6   H   0.325285792163727   0.583086451361713   0.358909963240745   1.0
H7   H   0.714939868154321   0.283339779878944   0.513493904151531   1.0
H8   H   0.627323061333483   0.685628984151329   0.531198412656023   1.0
H9   H   0.341246276321907   0.499550851057962   0.727349540780244   1.0
H10   H   0.463246067865571   0.114737669068840   0.728295171272014   1.0
H11   H   0.075820562159235   0.335908936733594   0.531624830718817   1.0
C12   C   0.572036954683065   0.437224280996501   0.532155729300770   1.0
C13   C   0.238705337689109   0.221787533783154   0.532841344609985   1.0
C14   C   0.404056417066938   0.313675572121173   0.656505649623310   1.0
Ge15   Ge   0.895167779235262   0.214425096616101   0.024564638997283   1.0
N16   N   0.395569148772835   0.381116062149512   0.409673898728621   1.0




# HOIP entry ID:                    0312
# Khazana ID:                       2162
# Organic cation source:            B. Zhou et al., Angew. Chem. Int. Ed. 50, 11441 (2011)
# Label:                            Azetidinium Germanium Bromide
# Material class:                   Hybrid organic-inorganic perovskite ( MC_ino )
# Geometry class:                   Bulk crystalline materials ( GC_cry )
# Organic cation chemical formula:  C3H6N2
# Number of atom types:             5
# Total number of atoms:            16
# Atom types:                       C H N  Ge Br
# Number of each atom:              3 8 1  1 3
# Bandgap, HSE06 (eV):              3.76
# Bandgap, GGA (eV):                2.8952
# Kpoint for VBM:                   0.5, 0.2, 0.5
# Kpoint for CBM:                   0.5, 0.5, 0.5
# Dielectric constant, electronic:  3.8119
# Dielectric constant, ionic:       5.7774
# Dielectric constant, total:       9.5892
# Refractive index:                 1.9524
# Atomization energy (eV/atom):     -4.4228
# Relative energy1 (eV/atom):       0.147
# Relative energy2 (eV/atom):       0.3039
# Volume of the unit cell (A^3):    221.22
# Density (g/cm^3):                 2.7716
# Tool:                             VASP
# Pseudopotential:                  PAW
# Note:                             ENCUT=400eV, k-spacing_relax=0.20/Angstrom, k-spacing_bandgap=0.15/Angstrom
# Created by:                       C.Kim, T.D.Huan, S.Krishnan, R. Ramprasad