data_1
_audit_creation_method   'Generated by vasp2cif'
_cell_length_a    4.32251439049
_cell_length_b    5.92171755772
_cell_length_c    8.76477234333
_cell_angle_alpha    93.0197661232
_cell_angle_beta    90.4535984852
_cell_angle_gamma    95.5712975156

_symmetry_space_group_name_H-M    'P 1'
loop_
_atom_site_label
_atom_site_type_symbol
_atom_site_fract_x
_atom_site_fract_y
_atom_site_fract_z
_atom_site_occupancy
Br1   Br   0.340750332360145   0.612031072533533   0.121134519594854   1.0
Br2   Br   0.867005873901377   0.064225953174308   0.896808006729920   1.0
Br3   Br   0.322850802994623   0.598433941865466   0.643010210142762   1.0
H4   H   0.887403366311950   0.970938160774665   0.189643547626737   1.0
H5   H   0.978841385907245   0.832064074124460   0.498617257318763   1.0
H6   H   0.648915404474081   0.791649829807483   0.396536407804277   1.0
H7   H   0.473559343903410   0.109201799388416   0.539603200988502   1.0
H8   H   0.860771203111867   0.186954301613220   0.604559764041362   1.0
H9   H   0.960352197055734   0.413178412021225   0.379161808078884   1.0
H10   H   0.610801179970665   0.293577681172778   0.287105660005246   1.0
H11   H   0.216795349753490   0.066166970051640   0.306379573139559   1.0
C12   C   0.715057847180780   0.132992291733892   0.505231537299906   1.0
C13   C   0.965090306520260   0.049678289484845   0.299216706482774   1.0
C14   C   0.804885806494553   0.258406982087010   0.359217738734152   1.0
Ge15   Ge   0.760825720105544   0.634074371524562   0.889833800792438   1.0
N16   N   0.827363879954270   0.911335868642531   0.432060261219867   1.0




# HOIP entry ID:                    0313
# Khazana ID:                       2163
# Organic cation source:            B. Zhou et al., Angew. Chem. Int. Ed. 50, 11441 (2011)
# Label:                            Azetidinium Germanium Bromide
# Material class:                   Hybrid organic-inorganic perovskite ( MC_ino )
# Geometry class:                   Bulk crystalline materials ( GC_cry )
# Organic cation chemical formula:  C3H6N2
# Number of atom types:             5
# Total number of atoms:            16
# Atom types:                       C H N  Ge Br
# Number of each atom:              3 8 1  1 3
# Bandgap, HSE06 (eV):              3.6186
# Bandgap, GGA (eV):                2.7048
# Kpoint for VBM:                   0.2368, 0.5, 0.2368
# Kpoint for CBM:                   0, -0.4286, 0.375
# Dielectric constant, electronic:  3.7653
# Dielectric constant, ionic:       6.9429
# Dielectric constant, total:       10.7082
# Refractive index:                 1.9405
# Atomization energy (eV/atom):     -4.4215
# Relative energy1 (eV/atom):       0.1483
# Relative energy2 (eV/atom):       0.3052
# Volume of the unit cell (A^3):    222.96
# Density (g/cm^3):                 2.7499
# Tool:                             VASP
# Pseudopotential:                  PAW
# Note:                             ENCUT=400eV, k-spacing_relax=0.20/Angstrom, k-spacing_bandgap=0.15/Angstrom
# Created by:                       C.Kim, T.D.Huan, S.Krishnan, R. Ramprasad