data_1
_audit_creation_method   'Generated by vasp2cif'
_cell_length_a    7.8353102849
_cell_length_b    6.40227074606
_cell_length_c    4.70652758094
_cell_angle_alpha    85.7359873538
_cell_angle_beta    86.1166653696
_cell_angle_gamma    84.0456138824

_symmetry_space_group_name_H-M    'P 1'
loop_
_atom_site_label
_atom_site_type_symbol
_atom_site_fract_x
_atom_site_fract_y
_atom_site_fract_z
_atom_site_occupancy
Br1   Br   0.143449245087382   0.516330306609710   0.829201827507262   1.0
Br2   Br   0.867802305692045   0.038670667063663   0.807165742600382   1.0
Br3   Br   0.670100099617798   0.568392681591803   0.284583189714510   1.0
H4   H   0.438318102320871   0.864391483301887   0.929141166538116   1.0
H5   H   0.407946914892364   0.325092838608342   0.977592994541297   1.0
H6   H   0.593893673501690   0.161562073934064   0.959460557527947   1.0
H7   H   0.565031227378746   0.058272077500128   0.445851441188353   1.0
H8   H   0.404551191041463   0.279960222067061   0.472291802298002   1.0
H9   H   0.175902278270854   0.059572488125440   0.377799767584342   1.0
H10   H   0.324052548280136   0.830518770727899   0.435650369801849   1.0
H11   H   0.253244661761123   0.051299642281087   0.863563266997552   1.0
C12   C   0.444853194110678   0.135380901488780   0.367972729513021   1.0
C13   C   0.356050584086006   0.999547984860087   0.003779123107357   1.0
C14   C   0.305636050573156   0.986681725277272   0.327291443680551   1.0
Ge15   Ge   0.950230690366119   0.739713752320938   0.216730472574412   1.0
N16   N   0.467627233019655   0.179692384241868   0.043604104825128   1.0




# HOIP entry ID:                    0314
# Khazana ID:                       2164
# Organic cation source:            B. Zhou et al., Angew. Chem. Int. Ed. 50, 11441 (2011)
# Label:                            Azetidinium Germanium Bromide
# Material class:                   Hybrid organic-inorganic perovskite ( MC_ino )
# Geometry class:                   Bulk crystalline materials ( GC_cry )
# Organic cation chemical formula:  C3H6N2
# Number of atom types:             5
# Total number of atoms:            16
# Atom types:                       C H N  Ge Br
# Number of each atom:              3 8 1  1 3
# Bandgap, HSE06 (eV):              3.8001
# Bandgap, GGA (eV):                2.8716
# Kpoint for VBM:                   0, 0.4167, 0.4375
# Kpoint for CBM:                   0, 0.5, 0
# Dielectric constant, electronic:  3.3616
# Dielectric constant, ionic:       2.2949
# Dielectric constant, total:       5.6565
# Refractive index:                 1.8335
# Atomization energy (eV/atom):     -4.422
# Relative energy1 (eV/atom):       0.1478
# Relative energy2 (eV/atom):       0.3047
# Volume of the unit cell (A^3):    233.74
# Density (g/cm^3):                 2.6231
# Tool:                             VASP
# Pseudopotential:                  PAW
# Note:                             ENCUT=400eV, k-spacing_relax=0.20/Angstrom, k-spacing_bandgap=0.15/Angstrom
# Created by:                       C.Kim, T.D.Huan, S.Krishnan, R. Ramprasad