data_1
_audit_creation_method   'Generated by vasp2cif'
_cell_length_a    8.03722132918
_cell_length_b    6.23270796051
_cell_length_c    4.76997198382
_cell_angle_alpha    85.8431924563
_cell_angle_beta    88.9439962917
_cell_angle_gamma    79.6114054595

_symmetry_space_group_name_H-M    'P 1'
loop_
_atom_site_label
_atom_site_type_symbol
_atom_site_fract_x
_atom_site_fract_y
_atom_site_fract_z
_atom_site_occupancy
Br1   Br   0.931520427819180   0.199262761626656   0.736948330198132   1.0
Br2   Br   0.110500800258180   0.690164631782018   0.331148171488948   1.0
Br3   Br   0.630990321871309   0.755563690738462   0.684240149849458   1.0
H4   H   0.330374350139024   0.106684669755332   0.708428029949573   1.0
H5   H   0.531314424511486   0.433158141246849   0.815962112569053   1.0
H6   H   0.607897543890616   0.163110703198889   0.820503321979558   1.0
H7   H   0.605428696512455   0.151339699760349   0.311443606474143   1.0
H8   H   0.461777866004091   0.411890980701479   0.295776207094711   1.0
H9   H   0.224409956652544   0.198658546596391   0.295616338212554   1.0
H10   H   0.368861152898681   0.961849355640886   0.203360947381078   1.0
H11   H   0.245624669333914   0.376855157930358   0.813197674058593   1.0
C12   C   0.492678632562466   0.250077505597687   0.214408606248910   1.0
C13   C   0.333417081419192   0.224939150310277   0.862927418184626   1.0
C14   C   0.337055374827031   0.139678610046367   0.174715009144222   1.0
Ge15   Ge   0.854295007907652   0.510193297792632   0.332923521483345   1.0
N16   N   0.512273693392174   0.279563097275364   0.893750555683319   1.0




# HOIP entry ID:                    0315
# Khazana ID:                       2165
# Organic cation source:            B. Zhou et al., Angew. Chem. Int. Ed. 50, 11441 (2011)
# Label:                            Azetidinium Germanium Bromide
# Material class:                   Hybrid organic-inorganic perovskite ( MC_ino )
# Geometry class:                   Bulk crystalline materials ( GC_cry )
# Organic cation chemical formula:  C3H6N2
# Number of atom types:             5
# Total number of atoms:            16
# Atom types:                       C H N  Ge Br
# Number of each atom:              3 8 1  1 3
# Bandgap, HSE06 (eV):              3.893
# Bandgap, GGA (eV):                2.9176
# Kpoint for VBM:                   0.3421, 0.3421, 0.3421
# Kpoint for CBM:                   0, 0.3158, 0
# Dielectric constant, electronic:  3.3401
# Dielectric constant, ionic:       2.3326
# Dielectric constant, total:       5.6727
# Refractive index:                 1.8276
# Atomization energy (eV/atom):     -4.4164
# Relative energy1 (eV/atom):       0.1534
# Relative energy2 (eV/atom):       0.3103
# Volume of the unit cell (A^3):    234.41
# Density (g/cm^3):                 2.6156
# Tool:                             VASP
# Pseudopotential:                  PAW
# Note:                             ENCUT=400eV, k-spacing_relax=0.20/Angstrom, k-spacing_bandgap=0.15/Angstrom
# Created by:                       C.Kim, T.D.Huan, S.Krishnan, R. Ramprasad