data_1
_audit_creation_method   'Generated by vasp2cif'
_cell_length_a    5.87817204652
_cell_length_b    6.89738135867
_cell_length_c    5.88574603977
_cell_angle_alpha    89.1968687715
_cell_angle_beta    79.2967098816
_cell_angle_gamma    89.906943502

_symmetry_space_group_name_H-M    'P 1'
loop_
_atom_site_label
_atom_site_type_symbol
_atom_site_fract_x
_atom_site_fract_y
_atom_site_fract_z
_atom_site_occupancy
Br1   Br   0.338331453614494   0.731387214752715   0.061227268567329   1.0
Br2   Br   0.840010082962856   0.733538638342210   0.561915822845336   1.0
Br3   Br   0.868070030399181   0.153440493061907   0.085563476181726   1.0
H4   H   0.567590457767366   0.038079042409798   0.782812170594163   1.0
H5   H   0.307320941847792   0.909373889588231   0.516048690913323   1.0
H6   H   0.271013310538379   0.523119401420615   0.502207173647875   1.0
H7   H   0.568152758430088   0.406386203816929   0.797069323403207   1.0
H8   H   0.132068053356626   0.206965678746457   0.350532012702772   1.0
C9   C   0.470029133410939   0.324757176187930   0.694950529776683   1.0
C10   C   0.337500238130609   0.058406604306057   0.552038129694317   1.0
C11   C   0.324671863506232   0.382053461868537   0.550600381034393   1.0
Ge12   Ge   0.892834180070572   0.768638243268249   0.116321732885226   1.0
N13   N   0.474598296013184   0.124175340079773   0.692334851708722   1.0
N14   N   0.244669199951652   0.213938612150535   0.464028436044870   1.0




# HOIP entry ID:                    0316
# Khazana ID:                       2166
# Organic cation source:            B.Saparov et al., Chem. Rev. 116, 4558 (2016)
# Label:                            Imidazolium Germanium Bromide
# Material class:                   Hybrid organic-inorganic perovskite ( MC_ino )
# Geometry class:                   Bulk crystalline materials ( GC_cry )
# Organic cation chemical formula:  C3H5N2
# Number of atom types:             5
# Total number of atoms:            14
# Atom types:                       C H N  Ge Br
# Number of each atom:              3 5 2  1 3
# Bandgap, HSE06 (eV):              2.8815
# Bandgap, GGA (eV):                2.1267
# Kpoint for VBM:                   0.5, 0.5, 0.5
# Kpoint for CBM:                   0.5, 0.5, 0.5
# Dielectric constant, electronic:  3.6656
# Dielectric constant, ionic:       3.9946
# Dielectric constant, total:       7.6603
# Refractive index:                 1.9146
# Atomization energy (eV/atom):     -4.8906
# Relative energy1 (eV/atom):       0.3505
# Relative energy2 (eV/atom):       0.5299
# Volume of the unit cell (A^3):    234.46
# Density (g/cm^3):                 2.6929
# Tool:                             VASP
# Pseudopotential:                  PAW
# Note:                             ENCUT=400eV, k-spacing_relax=0.20/Angstrom, k-spacing_bandgap=0.15/Angstrom
# Created by:                       C.Kim, T.D.Huan, S.Krishnan, R. Ramprasad