data_1
_audit_creation_method   'Generated by vasp2cif'
_cell_length_a    5.95630653116
_cell_length_b    6.632160385
_cell_length_c    5.95521849127
_cell_angle_alpha    95.8109486124
_cell_angle_beta    80.1326202991
_cell_angle_gamma    85.417994773

_symmetry_space_group_name_H-M    'P 1'
loop_
_atom_site_label
_atom_site_type_symbol
_atom_site_fract_x
_atom_site_fract_y
_atom_site_fract_z
_atom_site_occupancy
Br1   Br   0.705832346110200   0.748478212604123   0.926527483616446   1.0
Br2   Br   0.155215317448378   0.779199019321223   0.395530881244474   1.0
Br3   Br   0.123850364048636   0.189840389565984   0.918442780596945   1.0
H4   H   0.412390098086436   0.050313777146643   0.298256426549014   1.0
H5   H   0.659383372547803   0.992266751189669   0.600258738842781   1.0
H6   H   0.764732429047987   0.574391855588539   0.387819447469424   1.0
H7   H   0.456734679671882   0.395348223951245   0.145715537704033   1.0
H8   H   0.865589919007326   0.309644889933495   0.651963035257762   1.0
C9   C   0.544389805187210   0.342501924025109   0.275062665756481   1.0
C10   C   0.646626560347863   0.123870920012973   0.509519800798320   1.0
C11   C   0.694192797071834   0.430648341532379   0.394880787305176   1.0
Ge12   Ge   0.139311840939361   0.792271237521090   0.841975519397117   1.0
N13   N   0.517635168068220   0.152959642114847   0.349660885788005   1.0
N14   N   0.755295302417010   0.291734815492633   0.539126009674031   1.0




# HOIP entry ID:                    0317
# Khazana ID:                       2167
# Organic cation source:            B.Saparov et al., Chem. Rev. 116, 4558 (2016)
# Label:                            Imidazolium Germanium Bromide
# Material class:                   Hybrid organic-inorganic perovskite ( MC_ino )
# Geometry class:                   Bulk crystalline materials ( GC_cry )
# Organic cation chemical formula:  C3H5N2
# Number of atom types:             5
# Total number of atoms:            14
# Atom types:                       C H N  Ge Br
# Number of each atom:              3 5 2  1 3
# Bandgap, HSE06 (eV):              3.1349
# Bandgap, GGA (eV):                2.3699
# Kpoint for VBM:                   0.5, 0.5, 0.5
# Kpoint for CBM:                   0.5, 0.5, 0.5
# Dielectric constant, electronic:  3.7107
# Dielectric constant, ionic:       3.1089
# Dielectric constant, total:       6.8196
# Refractive index:                 1.9263
# Atomization energy (eV/atom):     -4.8911
# Relative energy1 (eV/atom):       0.35
# Relative energy2 (eV/atom):       0.5293
# Volume of the unit cell (A^3):    229.44
# Density (g/cm^3):                 2.7518
# Tool:                             VASP
# Pseudopotential:                  PAW
# Note:                             ENCUT=400eV, k-spacing_relax=0.20/Angstrom, k-spacing_bandgap=0.15/Angstrom
# Created by:                       C.Kim, T.D.Huan, S.Krishnan, R. Ramprasad