data_1
_audit_creation_method   'Generated by vasp2cif'
_cell_length_a    6.41153770254
_cell_length_b    5.99925054516
_cell_length_c    6.17096583565
_cell_angle_alpha    79.3260679363
_cell_angle_beta    85.4184579109
_cell_angle_gamma    96.474045009

_symmetry_space_group_name_H-M    'P 1'
loop_
_atom_site_label
_atom_site_type_symbol
_atom_site_fract_x
_atom_site_fract_y
_atom_site_fract_z
_atom_site_occupancy
Br1   Br   0.365412487682683   0.777530926309332   0.101970742742878   1.0
Br2   Br   0.896570032367670   0.743299024158979   0.531800713529996   1.0
Br3   Br   0.857785230227726   0.337596784396993   0.113634492478589   1.0
H4   H   0.605216273984240   0.359032709975516   0.844612788605453   1.0
H5   H   0.672911617272128   0.061364885600945   0.608915301415294   1.0
H6   H   0.081713905776752   0.279171743975084   0.475147362378877   1.0
H7   H   0.254779712718737   0.515126111275109   0.781028984865024   1.0
H8   H   0.355259318789947   0.017720846332772   0.390721014167745   1.0
C9   C   0.311283224651682   0.386558855038956   0.700310001182025   1.0
C10   C   0.538016890253211   0.152669466786406   0.614592875106311   1.0
C11   C   0.226182144005406   0.269937187972673   0.551352700404387   1.0
Ge12   Ge   0.954253699224722   0.777493549427689   0.108216713372073   1.0
N13   N   0.504277248062941   0.310427713358060   0.736565095734804   1.0
N14   N   0.370338214982155   0.125930195391440   0.500371214016482   1.0




# HOIP entry ID:                    0318
# Khazana ID:                       2168
# Organic cation source:            B.Saparov et al., Chem. Rev. 116, 4558 (2016)
# Label:                            Imidazolium Germanium Bromide
# Material class:                   Hybrid organic-inorganic perovskite ( MC_ino )
# Geometry class:                   Bulk crystalline materials ( GC_cry )
# Organic cation chemical formula:  C3H5N2
# Number of atom types:             5
# Total number of atoms:            14
# Atom types:                       C H N  Ge Br
# Number of each atom:              3 5 2  1 3
# Bandgap, HSE06 (eV):              3.4004
# Bandgap, GGA (eV):                2.5419
# Kpoint for VBM:                   0.5, 0.5, 0.5
# Kpoint for CBM:                   0.5, 0.5, 0.5
# Dielectric constant, electronic:  3.614
# Dielectric constant, ionic:       2.495
# Dielectric constant, total:       6.1091
# Refractive index:                 1.9011
# Atomization energy (eV/atom):     -4.8913
# Relative energy1 (eV/atom):       0.3498
# Relative energy2 (eV/atom):       0.5291
# Volume of the unit cell (A^3):    230.53
# Density (g/cm^3):                 2.7388
# Tool:                             VASP
# Pseudopotential:                  PAW
# Note:                             ENCUT=400eV, k-spacing_relax=0.20/Angstrom, k-spacing_bandgap=0.15/Angstrom
# Created by:                       C.Kim, T.D.Huan, S.Krishnan, R. Ramprasad