data_1
_audit_creation_method   'Generated by vasp2cif'
_cell_length_a    6.26908792814
_cell_length_b    6.06341152191
_cell_length_c    6.1273757492
_cell_angle_alpha    98.2927443411
_cell_angle_beta    97.3351468328
_cell_angle_gamma    94.4044988052

_symmetry_space_group_name_H-M    'P 1'
loop_
_atom_site_label
_atom_site_type_symbol
_atom_site_fract_x
_atom_site_fract_y
_atom_site_fract_z
_atom_site_occupancy
Br1   Br   0.950521437038134   0.860453711875870   0.432281273443571   1.0
Br2   Br   0.514370530626373   0.844510079355452   0.921352400539710   1.0
Br3   Br   0.944964214008984   0.413704750620873   0.904597890348420   1.0
H4   H   0.157496120355375   0.500220627234867   0.566599466359250   1.0
H5   H   0.329338552909547   0.177121210617329   0.721840616680780   1.0
H6   H   0.671423857848005   0.343880088215606   0.204018337983889   1.0
H7   H   0.349006136080313   0.627632420222689   0.253846822193452   1.0
H8   H   0.637018223532486   0.085986024165201   0.495025223030090   1.0
C9   C   0.392223289124907   0.491325932730241   0.338890898526373   1.0
C10   C   0.374315700469708   0.256739745503118   0.586715226960713   1.0
C11   C   0.551438207714369   0.352032825846742   0.314941017734682   1.0
Ge12   Ge   0.927438967488577   0.844840169297818   0.994696056583386   1.0
N13   N   0.283795175498000   0.427365839171387   0.506929079885104   1.0
N14   N   0.536069587305242   0.207246575142804   0.470115689730377   1.0




# HOIP entry ID:                    0319
# Khazana ID:                       2169
# Organic cation source:            B.Saparov et al., Chem. Rev. 116, 4558 (2016)
# Label:                            Imidazolium Germanium Bromide
# Material class:                   Hybrid organic-inorganic perovskite ( MC_ino )
# Geometry class:                   Bulk crystalline materials ( GC_cry )
# Organic cation chemical formula:  C3H5N2
# Number of atom types:             5
# Total number of atoms:            14
# Atom types:                       C H N  Ge Br
# Number of each atom:              3 5 2  1 3
# Bandgap, HSE06 (eV):              3.1627
# Bandgap, GGA (eV):                2.3783
# Kpoint for VBM:                   0.5, 0.5, 0.5
# Kpoint for CBM:                   0.5, 0.5, 0.5
# Dielectric constant, electronic:  3.6928
# Dielectric constant, ionic:       2.5739
# Dielectric constant, total:       6.2667
# Refractive index:                 1.9217
# Atomization energy (eV/atom):     -4.8938
# Relative energy1 (eV/atom):       0.3473
# Relative energy2 (eV/atom):       0.5267
# Volume of the unit cell (A^3):    227.51
# Density (g/cm^3):                 2.7751
# Tool:                             VASP
# Pseudopotential:                  PAW
# Note:                             ENCUT=400eV, k-spacing_relax=0.20/Angstrom, k-spacing_bandgap=0.15/Angstrom
# Created by:                       C.Kim, T.D.Huan, S.Krishnan, R. Ramprasad