data_1
_audit_creation_method   'Generated by vasp2cif'
_cell_length_a    5.92558788724
_cell_length_b    4.09733359913
_cell_length_c    9.33478269796
_cell_angle_alpha    88.389437535
_cell_angle_beta    88.3227650004
_cell_angle_gamma    81.482996087

_symmetry_space_group_name_H-M    'P 1'
loop_
_atom_site_label
_atom_site_type_symbol
_atom_site_fract_x
_atom_site_fract_y
_atom_site_fract_z
_atom_site_occupancy
Br1   Br   0.953264677931472   0.951022472265635   0.796335993135415   1.0
Br2   Br   0.497082501500138   0.503728814733449   0.042095595995896   1.0
Br3   Br   0.956021241936703   0.921007018604740   0.248294952937030   1.0
H4   H   0.539909411257725   0.534887108400589   0.301945570942849   1.0
H5   H   0.208672083370082   0.265657555963614   0.668048211877064   1.0
H6   H   0.526520706366604   0.562573299595542   0.757156684753589   1.0
H7   H   0.757708625655702   0.739862205457605   0.509145928363424   1.0
H8   H   0.210353711941487   0.246204241848091   0.393335476255103   1.0
C9   C   0.499565946898656   0.525113947075326   0.645705324490741   1.0
C10   C   0.612666734641422   0.611692002203725   0.524090318652178   1.0
C11   C   0.325640984930061   0.356816118732859   0.457846036146215   1.0
Ge12   Ge   0.938009466270366   0.380413842824382   0.024809260519738   1.0
N13   N   0.322473561649183   0.367283790143397   0.601693539510705   1.0
N14   N   0.501040345650395   0.505127582151005   0.408947106420023   1.0




# HOIP entry ID:                    0320
# Khazana ID:                       2170
# Organic cation source:            B.Saparov et al., Chem. Rev. 116, 4558 (2016)
# Label:                            Imidazolium Germanium Bromide
# Material class:                   Hybrid organic-inorganic perovskite ( MC_ino )
# Geometry class:                   Bulk crystalline materials ( GC_cry )
# Organic cation chemical formula:  C3H5N2
# Number of atom types:             5
# Total number of atoms:            14
# Atom types:                       C H N  Ge Br
# Number of each atom:              3 5 2  1 3
# Bandgap, HSE06 (eV):              3.8711
# Bandgap, GGA (eV):                3.0315
# Kpoint for VBM:                   0.5, 0.1, 0.5
# Kpoint for CBM:                   0.5, 0, 0
# Dielectric constant, electronic:  3.8204
# Dielectric constant, ionic:       5.0976
# Dielectric constant, total:       8.918
# Refractive index:                 1.9546
# Atomization energy (eV/atom):     -4.8895
# Relative energy1 (eV/atom):       0.3516
# Relative energy2 (eV/atom):       0.5309
# Volume of the unit cell (A^3):    223.98
# Density (g/cm^3):                 2.8188
# Tool:                             VASP
# Pseudopotential:                  PAW
# Note:                             ENCUT=400eV, k-spacing_relax=0.20/Angstrom, k-spacing_bandgap=0.15/Angstrom
# Created by:                       C.Kim, T.D.Huan, S.Krishnan, R. Ramprasad