data_1
_audit_creation_method   'Generated by vasp2cif'
_cell_length_a    9.93211379352
_cell_length_b    4.12586807288
_cell_length_c    5.92044817519
_cell_angle_alpha    82.5391001559
_cell_angle_beta    87.3850409706
_cell_angle_gamma    68.7367733898

_symmetry_space_group_name_H-M    'P 1'
loop_
_atom_site_label
_atom_site_type_symbol
_atom_site_fract_x
_atom_site_fract_y
_atom_site_fract_z
_atom_site_occupancy
Br1   Br   0.231255175716505   0.656761602676859   0.976685923210766   1.0
Br2   Br   0.982777444835676   0.404853631068846   0.523337809223847   1.0
Br3   Br   0.776893545603528   0.050279587145901   0.995473282885747   1.0
H4   H   0.721374811369735   0.725771995241743   0.593448941365203   1.0
H5   H   0.362721817857555   0.856463166765323   0.224368738035253   1.0
H6   H   0.268248086520138   0.272657862954297   0.528310105804664   1.0
H7   H   0.510564092207112   0.176368115890519   0.786691600999049   1.0
H8   H   0.636525348087922   0.522494668860162   0.257599835342212   1.0
C9   C   0.379757518375577   0.107225819800554   0.513954398779909   1.0
C10   C   0.498501686476679   0.058875488865475   0.640845407970367   1.0
C11   C   0.570142629296114   0.712328305472333   0.364548955176367   1.0
Ge12   Ge   0.002020911162653   0.289210357150743   0.963318116573916   1.0
N13   N   0.427138004953321   0.889621931974006   0.343490186284541   1.0
N14   N   0.615238927537462   0.812757466133242   0.544556698348245   1.0




# HOIP entry ID:                    0321
# Khazana ID:                       2171
# Organic cation source:            B.Saparov et al., Chem. Rev. 116, 4558 (2016)
# Label:                            Imidazolium Germanium Bromide
# Material class:                   Hybrid organic-inorganic perovskite ( MC_ino )
# Geometry class:                   Bulk crystalline materials ( GC_cry )
# Organic cation chemical formula:  C3H5N2
# Number of atom types:             5
# Total number of atoms:            14
# Atom types:                       C H N  Ge Br
# Number of each atom:              3 5 2  1 3
# Bandgap, HSE06 (eV):              3.8201
# Bandgap, GGA (eV):                2.9667
# Kpoint for VBM:                   -0.25, 0.1364, 0.5
# Kpoint for CBM:                   0.5, 0.5, 0.5
# Dielectric constant, electronic:  3.816
# Dielectric constant, ionic:       4.3495
# Dielectric constant, total:       8.1655
# Refractive index:                 1.9535
# Atomization energy (eV/atom):     -4.8899
# Relative energy1 (eV/atom):       0.3512
# Relative energy2 (eV/atom):       0.5305
# Volume of the unit cell (A^3):    224.18
# Density (g/cm^3):                 2.8163
# Tool:                             VASP
# Pseudopotential:                  PAW
# Note:                             ENCUT=400eV, k-spacing_relax=0.20/Angstrom, k-spacing_bandgap=0.15/Angstrom
# Created by:                       C.Kim, T.D.Huan, S.Krishnan, R. Ramprasad