data_1
_audit_creation_method   'Generated by vasp2cif'
_cell_length_a    8.99685051836
_cell_length_b    4.0873498931
_cell_length_c    6.10577434263
_cell_angle_alpha    99.5856085096
_cell_angle_beta    93.7076891047
_cell_angle_gamma    89.6901869484

_symmetry_space_group_name_H-M    'P 1'
loop_
_atom_site_label
_atom_site_type_symbol
_atom_site_fract_x
_atom_site_fract_y
_atom_site_fract_z
_atom_site_occupancy
Br1   Br   0.763091159631543   0.141413327241430   0.998849388175657   1.0
Br2   Br   0.004216356478530   0.777803525419884   0.460660830028701   1.0
Br3   Br   0.233343386471212   0.147076090315870   0.026222492803896   1.0
H4   H   0.293738385985222   0.834979629548663   0.366351873355967   1.0
H5   H   0.553623395598308   0.358274109643588   0.790078991704284   1.0
H6   H   0.731969719239039   0.522544247084276   0.521254475021891   1.0
H7   H   0.557850030714768   0.853792351740964   0.235305068231902   1.0
H8   H   0.283048331913861   0.533396693996984   0.699915356946001   1.0
C9   C   0.614769364847206   0.576694709907059   0.514049311257303   1.0
C10   C   0.529184829760865   0.738572277345916   0.373308325354557   1.0
C11   C   0.380161124188959   0.580211016824677   0.616188143799725   1.0
Ge12   Ge   0.992222157731845   0.627271458124845   0.036300128590085   1.0
N13   N   0.519652156281566   0.481539268475345   0.663090167228788   1.0
N14   N   0.384759601157206   0.739301294330623   0.441655447501333   1.0




# HOIP entry ID:                    0322
# Khazana ID:                       2172
# Organic cation source:            B.Saparov et al., Chem. Rev. 116, 4558 (2016)
# Label:                            Imidazolium Germanium Bromide
# Material class:                   Hybrid organic-inorganic perovskite ( MC_ino )
# Geometry class:                   Bulk crystalline materials ( GC_cry )
# Organic cation chemical formula:  C3H5N2
# Number of atom types:             5
# Total number of atoms:            14
# Atom types:                       C H N  Ge Br
# Number of each atom:              3 5 2  1 3
# Bandgap, HSE06 (eV):              3.9222
# Bandgap, GGA (eV):                3.0144
# Kpoint for VBM:                   0.5, -0.2, 0.3571
# Kpoint for CBM:                   0.5, 0, 0.5
# Dielectric constant, electronic:  3.8462
# Dielectric constant, ionic:       34.6217
# Dielectric constant, total:       38.468
# Refractive index:                 1.9612
# Atomization energy (eV/atom):     -4.8873
# Relative energy1 (eV/atom):       0.3538
# Relative energy2 (eV/atom):       0.5331
# Volume of the unit cell (A^3):    220.93
# Density (g/cm^3):                 2.8578
# Tool:                             VASP
# Pseudopotential:                  PAW
# Note:                             ENCUT=400eV, k-spacing_relax=0.20/Angstrom, k-spacing_bandgap=0.15/Angstrom
# Created by:                       C.Kim, T.D.Huan, S.Krishnan, R. Ramprasad