data_1
_audit_creation_method   'Generated by vasp2cif'
_cell_length_a    6.1323599348
_cell_length_b    4.08340979605
_cell_length_c    9.66858996384
_cell_angle_alpha    112.397474359
_cell_angle_beta    95.5481722954
_cell_angle_gamma    80.7584187047

_symmetry_space_group_name_H-M    'P 1'
loop_
_atom_site_label
_atom_site_type_symbol
_atom_site_fract_x
_atom_site_fract_y
_atom_site_fract_z
_atom_site_occupancy
Br1   Br   0.991664685947811   0.169175743922928   0.756989258494123   1.0
Br2   Br   0.441740419585088   0.764973755798941   0.008372276835168   1.0
Br3   Br   0.979457171429715   0.587750164400319   0.222039941563956   1.0
H4   H   0.568458615600925   0.190577513757695   0.267838879294558   1.0
H5   H   0.256209804565224   0.404490202437465   0.653259705370225   1.0
H6   H   0.565731362310601   0.800802929037431   0.735033763026379   1.0
H7   H   0.785017738382734   0.648421307949548   0.473572511325884   1.0
H8   H   0.250731263511675   0.037797589587498   0.372233798472848   1.0
C9   C   0.536670504771770   0.623968367874298   0.621642898204911   1.0
C10   C   0.643651924963002   0.549475831854032   0.493425318139351   1.0
C11   C   0.364296863624069   0.223768079928440   0.434421972312101   1.0
Ge12   Ge   0.016680231951760   0.878951425788713   0.992443733121597   1.0
N13   N   0.364547666649656   0.418092258287288   0.581976447132661   1.0
N14   N   0.533071746705993   0.301034829375460   0.378709496706257   1.0




# HOIP entry ID:                    0323
# Khazana ID:                       2173
# Organic cation source:            B.Saparov et al., Chem. Rev. 116, 4558 (2016)
# Label:                            Imidazolium Germanium Bromide
# Material class:                   Hybrid organic-inorganic perovskite ( MC_ino )
# Geometry class:                   Bulk crystalline materials ( GC_cry )
# Organic cation chemical formula:  C3H5N2
# Number of atom types:             5
# Total number of atoms:            14
# Atom types:                       C H N  Ge Br
# Number of each atom:              3 5 2  1 3
# Bandgap, HSE06 (eV):              3.8661
# Bandgap, GGA (eV):                2.9814
# Kpoint for VBM:                   0.5, 0.2, 0.3
# Kpoint for CBM:                   0.5, 0, 0.5
# Dielectric constant, electronic:  3.8634
# Dielectric constant, ionic:       69.1904
# Dielectric constant, total:       73.0538
# Refractive index:                 1.9656
# Atomization energy (eV/atom):     -4.8895
# Relative energy1 (eV/atom):       0.3515
# Relative energy2 (eV/atom):       0.5309
# Volume of the unit cell (A^3):    220.77
# Density (g/cm^3):                 2.8598
# Tool:                             VASP
# Pseudopotential:                  PAW
# Note:                             ENCUT=400eV, k-spacing_relax=0.20/Angstrom, k-spacing_bandgap=0.15/Angstrom
# Created by:                       C.Kim, T.D.Huan, S.Krishnan, R. Ramprasad