data_1
_audit_creation_method   'Generated by vasp2cif'
_cell_length_a    6.28871532675
_cell_length_b    6.27220460613
_cell_length_c    6.69008554468
_cell_angle_alpha    82.0375384427
_cell_angle_beta    87.1026670484
_cell_angle_gamma    92.7660928195

_symmetry_space_group_name_H-M    'P 1'
loop_
_atom_site_label
_atom_site_type_symbol
_atom_site_fract_x
_atom_site_fract_y
_atom_site_fract_z
_atom_site_occupancy
C1   C   0.467924294150492   0.579413890484027   0.339372359746164   1.0
C2   C   0.544068904925695   0.414065601609259   0.209952779475358   1.0
H3   H   0.714819839457896   0.439754833655329   0.168567143433982   1.0
H4   H   0.458292382481680   0.429658524173455   0.071252222051569   1.0
H5   H   0.573192195123049   0.412275635597254   0.612976485812517   1.0
H6   H   0.541747687563891   0.675312157389655   0.623357512318968   1.0
H7   H   0.512316026812535   0.249622502455551   0.288365639478485   1.0
H8   H   0.495715661427390   0.744637054954076   0.263034199912553   1.0
H9   H   0.299742308145525   0.552044552052536   0.389094396439788   1.0
H10   H   0.752211475531396   0.600666693475596   0.495701371209016   1.0
I11   I   0.520025727046693   0.011848914215520   0.820900740221667   1.0
I12   I   0.059719956453542   0.494627943165654   0.821303847960479   1.0
I13   I   0.015598665337499   0.999506198770554   0.329326629434291   1.0
N14   N   0.591378119552679   0.565492068382561   0.530496120055446   1.0
Ge15   Ge   0.047956755990064   0.039663429618983   0.907318552449716   1.0




# HOIP entry ID:                    0324
# Khazana ID:                       2174
# Organic cation source:            B.Saparov et al., Chem. Rev. 116, 4558 (2016)
# Label:                            Ethylammonium Germanium Iodide
# Material class:                   Hybrid organic-inorganic perovskite ( MC_ino )
# Geometry class:                   Bulk crystalline materials ( GC_cry )
# Organic cation chemical formula:  CH3CH2NH3
# Number of atom types:             5
# Total number of atoms:            15
# Atom types:                       C H N  Ge I
# Number of each atom:              2 8 1  1 3
# Bandgap, HSE06 (eV):              2.2338
# Bandgap, GGA (eV):                1.5575
# Kpoint for VBM:                   0.5, 0.5, 0
# Kpoint for CBM:                   0.5, 0.5, 0.5
# Dielectric constant, electronic:  4.8318
# Dielectric constant, ionic:       7.7625
# Dielectric constant, total:       12.5943
# Refractive index:                 2.1981
# Atomization energy (eV/atom):     -4.1591
# Relative energy1 (eV/atom):       0.3016
# Relative energy2 (eV/atom):       0.3996
# Volume of the unit cell (A^3):    260.6
# Density (g/cm^3):                 3.1823
# Tool:                             VASP
# Pseudopotential:                  PAW
# Note:                             ENCUT=400eV, k-spacing_relax=0.20/Angstrom, k-spacing_bandgap=0.15/Angstrom
# Created by:                       C.Kim, T.D.Huan, S.Krishnan, R. Ramprasad