data_1
_audit_creation_method   'Generated by vasp2cif'
_cell_length_a    6.5417788957
_cell_length_b    6.17606358681
_cell_length_c    6.5831398261
_cell_angle_alpha    85.3180905542
_cell_angle_beta    79.2812004671
_cell_angle_gamma    85.7304928258

_symmetry_space_group_name_H-M    'P 1'
loop_
_atom_site_label
_atom_site_type_symbol
_atom_site_fract_x
_atom_site_fract_y
_atom_site_fract_z
_atom_site_occupancy
C1   C   0.571985233560724   0.775598264385067   0.305204604032639   1.0
C2   C   0.534065222852803   0.596012741598585   0.174195398593646   1.0
H3   H   0.680444421376095   0.529073939998014   0.086628291716629   1.0
H4   H   0.436027348499444   0.663073783975165   0.063801717385580   1.0
H5   H   0.639113984946334   0.554328826062374   0.554684575544584   1.0
H6   H   0.721116962987551   0.803534050227618   0.561603558571285   1.0
H7   H   0.453197862431978   0.463688012782107   0.269806790460784   1.0
H8   H   0.656639340818273   0.907037784605649   0.213648531812772   1.0
H9   H   0.427675580681139   0.844139769874616   0.394143266473712   1.0
H10   H   0.852021078502062   0.630605705958516   0.393650407672133   1.0
I11   I   0.584602560770243   0.159996207536011   0.780816271693261   1.0
I12   I   0.103658661343459   0.663787986198166   0.779008843177053   1.0
I13   I   0.057999626407330   0.172326975875805   0.282512466061370   1.0
N14   N   0.705139538505748   0.685366512381357   0.463800444771621   1.0
Ge15   Ge   0.139782576316847   0.201229438541070   0.848214832032980   1.0




# HOIP entry ID:                    0325
# Khazana ID:                       2175
# Organic cation source:            B.Saparov et al., Chem. Rev. 116, 4558 (2016)
# Label:                            Ethylammonium Germanium Iodide
# Material class:                   Hybrid organic-inorganic perovskite ( MC_ino )
# Geometry class:                   Bulk crystalline materials ( GC_cry )
# Organic cation chemical formula:  CH3CH2NH3
# Number of atom types:             5
# Total number of atoms:            15
# Atom types:                       C H N  Ge I
# Number of each atom:              2 8 1  1 3
# Bandgap, HSE06 (eV):              2.3398
# Bandgap, GGA (eV):                1.6098
# Kpoint for VBM:                   0.5, 0.5, 0
# Kpoint for CBM:                   0.5, 0.5, 0.5
# Dielectric constant, electronic:  4.6993
# Dielectric constant, ionic:       4.7726
# Dielectric constant, total:       9.4719
# Refractive index:                 2.1678
# Atomization energy (eV/atom):     -4.1608
# Relative energy1 (eV/atom):       0.2999
# Relative energy2 (eV/atom):       0.3979
# Volume of the unit cell (A^3):    259.98
# Density (g/cm^3):                 3.1899
# Tool:                             VASP
# Pseudopotential:                  PAW
# Note:                             ENCUT=400eV, k-spacing_relax=0.20/Angstrom, k-spacing_bandgap=0.15/Angstrom
# Created by:                       C.Kim, T.D.Huan, S.Krishnan, R. Ramprasad