data_1
_audit_creation_method   'Generated by vasp2cif'
_cell_length_a    8.79611564229
_cell_length_b    4.48140332962
_cell_length_c    6.62992007674
_cell_angle_alpha    81.1666921082
_cell_angle_beta    91.978943891
_cell_angle_gamma    87.5139107294

_symmetry_space_group_name_H-M    'P 1'
loop_
_atom_site_label
_atom_site_type_symbol
_atom_site_fract_x
_atom_site_fract_y
_atom_site_fract_z
_atom_site_occupancy
C1   C   0.467195702964531   0.542827436951541   0.424239816437911   1.0
C2   C   0.416130996607308   0.701378721185179   0.599939251287914   1.0
H3   H   0.392325673992794   0.538409597922815   0.734178358788405   1.0
H4   H   0.503457342799948   0.846433238027416   0.646981838073373   1.0
H5   H   0.629415898027368   0.247733474988394   0.614920223634464   1.0
H6   H   0.708230372173325   0.541036587423029   0.485079737975255   1.0
H7   H   0.389856525230812   0.368931248247684   0.393992864830992   1.0
H8   H   0.311811208687146   0.839233206615411   0.552751084823221   1.0
H9   H   0.477606378926637   0.699111068080811   0.282496379171057   1.0
H10   H   0.656130218202136   0.262720765713738   0.361305026163578   1.0
I11   I   0.962799747264761   0.778152339613285   0.555351510447373   1.0
I12   I   0.701074270531542   0.109886843681409   0.010444817884952   1.0
I13   I   0.211523969436009   0.092755195327676   0.027478904268726   1.0
N14   N   0.624167838541602   0.386748100663930   0.474459102874313   1.0
Ge15   Ge   0.976183856614099   0.653412175557705   0.985231083338384   1.0




# HOIP entry ID:                    0327
# Khazana ID:                       2177
# Organic cation source:            B.Saparov et al., Chem. Rev. 116, 4558 (2016)
# Label:                            Ethylammonium Germanium Iodide
# Material class:                   Hybrid organic-inorganic perovskite ( MC_ino )
# Geometry class:                   Bulk crystalline materials ( GC_cry )
# Organic cation chemical formula:  CH3CH2NH3
# Number of atom types:             5
# Total number of atoms:            15
# Atom types:                       C H N  Ge I
# Number of each atom:              2 8 1  1 3
# Bandgap, HSE06 (eV):              3.0962
# Bandgap, GGA (eV):                2.3172
# Kpoint for VBM:                   0.5, 0.1667, 0.1667
# Kpoint for CBM:                   0, 0.0556, 0.5
# Dielectric constant, electronic:  4.3646
# Dielectric constant, ionic:       10.1581
# Dielectric constant, total:       14.5227
# Refractive index:                 2.0892
# Atomization energy (eV/atom):     -4.1519
# Relative energy1 (eV/atom):       0.3087
# Relative energy2 (eV/atom):       0.4068
# Volume of the unit cell (A^3):    257.78
# Density (g/cm^3):                 3.2172
# Tool:                             VASP
# Pseudopotential:                  PAW
# Note:                             ENCUT=400eV, k-spacing_relax=0.20/Angstrom, k-spacing_bandgap=0.15/Angstrom
# Created by:                       C.Kim, T.D.Huan, S.Krishnan, R. Ramprasad