data_1
_audit_creation_method   'Generated by vasp2cif'
_cell_length_a    6.65036331503
_cell_length_b    4.50890691919
_cell_length_c    8.70562209346
_cell_angle_alpha    94.5512514802
_cell_angle_beta    96.2947423247
_cell_angle_gamma    94.8008643225

_symmetry_space_group_name_H-M    'P 1'
loop_
_atom_site_label
_atom_site_type_symbol
_atom_site_fract_x
_atom_site_fract_y
_atom_site_fract_z
_atom_site_occupancy
C1   C   0.413516696189148   0.822657099508199   0.608045828075788   1.0
C2   C   0.563645322777568   0.613433691396715   0.552148909790873   1.0
H3   H   0.487043331013730   0.432756606337961   0.469504909124943   1.0
H4   H   0.673912641141790   0.739980468128088   0.492607180303352   1.0
H5   H   0.181461257951426   0.480614640892839   0.630420852766122   1.0
H6   H   0.158709080363238   0.797284191293080   0.738112352313124   1.0
H7   H   0.489644846000615   0.007999102590432   0.687442725247060   1.0
H8   H   0.646921694393974   0.519095221271947   0.649475777864488   1.0
H9   H   0.323406846654379   0.908945314000611   0.511841190592982   1.0
H10   H   0.336778474161797   0.581321878989343   0.797695754100673   1.0
I11   I   0.477143931056318   0.605985623232456   0.098658201940317   1.0
I12   I   0.916780079229170   0.131886114656062   0.863047861731843   1.0
I13   I   0.969046015413561   0.212206881944162   0.367482414511635   1.0
N14   N   0.263192740384959   0.658034136811295   0.698957276608141   1.0
Ge15   Ge   0.901397043268339   0.679329028946682   0.119078765028583   1.0




# HOIP entry ID:                    0328
# Khazana ID:                       2178
# Organic cation source:            B.Saparov et al., Chem. Rev. 116, 4558 (2016)
# Label:                            Ethylammonium Germanium Iodide
# Material class:                   Hybrid organic-inorganic perovskite ( MC_ino )
# Geometry class:                   Bulk crystalline materials ( GC_cry )
# Organic cation chemical formula:  CH3CH2NH3
# Number of atom types:             5
# Total number of atoms:            15
# Atom types:                       C H N  Ge I
# Number of each atom:              2 8 1  1 3
# Bandgap, HSE06 (eV):              3.0953
# Bandgap, GGA (eV):                2.2402
# Kpoint for VBM:                   0.0833, 0, 0.375
# Kpoint for CBM:                   -0.4167, 0, 0.375
# Dielectric constant, electronic:  4.4937
# Dielectric constant, ionic:       43.8234
# Dielectric constant, total:       48.3171
# Refractive index:                 2.1198
# Atomization energy (eV/atom):     -4.1518
# Relative energy1 (eV/atom):       0.3089
# Relative energy2 (eV/atom):       0.4069
# Volume of the unit cell (A^3):    257.53
# Density (g/cm^3):                 3.2203
# Tool:                             VASP
# Pseudopotential:                  PAW
# Note:                             ENCUT=400eV, k-spacing_relax=0.20/Angstrom, k-spacing_bandgap=0.15/Angstrom
# Created by:                       C.Kim, T.D.Huan, S.Krishnan, R. Ramprasad