data_1
_audit_creation_method   'Generated by vasp2cif'
_cell_length_a    6.61352652548
_cell_length_b    4.49629049193
_cell_length_c    9.74425120099
_cell_angle_alpha    64.7459516912
_cell_angle_beta    95.9307715255
_cell_angle_gamma    99.0514101527

_symmetry_space_group_name_H-M    'P 1'
loop_
_atom_site_label
_atom_site_type_symbol
_atom_site_fract_x
_atom_site_fract_y
_atom_site_fract_z
_atom_site_occupancy
C1   C   0.340874153952441   0.504009574342945   0.591980414708608   1.0
C2   C   0.511057274236939   0.390913444081373   0.538515763182780   1.0
H3   H   0.462912116649562   0.378209421323185   0.430304262190421   1.0
H4   H   0.652075059959192   0.563826545949539   0.521612099477142   1.0
H5   H   0.400699789376827   0.243125890251755   0.831556412634675   1.0
H6   H   0.283512357292335   0.576861428914390   0.785927151872477   1.0
H7   H   0.318271235698483   0.760564083207389   0.518388484010136   1.0
H8   H   0.547412207298874   0.146773846754345   0.620936126123548   1.0
H9   H   0.194475146280374   0.348377060550630   0.599079380812337   1.0
H10   H   0.536815042015025   0.612155917337683   0.758339129733299   1.0
I11   I   0.474178474398310   0.750859537085935   0.085895434116403   1.0
I12   I   0.930926250518411   0.699431921403266   0.823988399659311   1.0
I13   I   0.943813410232466   0.194078975793646   0.335676794497256   1.0
N14   N   0.393665738515376   0.485550506280416   0.751059906282842   1.0
Ge15   Ge   0.905131743575401   0.861031846723598   0.100700240698695   1.0




# HOIP entry ID:                    0329
# Khazana ID:                       2179
# Organic cation source:            B.Saparov et al., Chem. Rev. 116, 4558 (2016)
# Label:                            Ethylammonium Germanium Iodide
# Material class:                   Hybrid organic-inorganic perovskite ( MC_ino )
# Geometry class:                   Bulk crystalline materials ( GC_cry )
# Organic cation chemical formula:  CH3CH2NH3
# Number of atom types:             5
# Total number of atoms:            15
# Atom types:                       C H N  Ge I
# Number of each atom:              2 8 1  1 3
# Bandgap, HSE06 (eV):              3.101
# Bandgap, GGA (eV):                2.3127
# Kpoint for VBM:                   0.0833, -0.1111, 0.4
# Kpoint for CBM:                   0.5, 0.0556, 0.1
# Dielectric constant, electronic:  4.3237
# Dielectric constant, ionic:       6.5688
# Dielectric constant, total:       10.8925
# Refractive index:                 2.0793
# Atomization energy (eV/atom):     -4.1522
# Relative energy1 (eV/atom):       0.3085
# Relative energy2 (eV/atom):       0.4065
# Volume of the unit cell (A^3):    258.59
# Density (g/cm^3):                 3.2071
# Tool:                             VASP
# Pseudopotential:                  PAW
# Note:                             ENCUT=400eV, k-spacing_relax=0.20/Angstrom, k-spacing_bandgap=0.15/Angstrom
# Created by:                       C.Kim, T.D.Huan, S.Krishnan, R. Ramprasad