data_1
_audit_creation_method   'Generated by vasp2cif'
_cell_length_a    7.25995308736
_cell_length_b    4.71114912172
_cell_length_c    7.93230157437
_cell_angle_alpha    105.218011469
_cell_angle_beta    93.3170187395
_cell_angle_gamma    84.4503366141

_symmetry_space_group_name_H-M    'P 1'
loop_
_atom_site_label
_atom_site_type_symbol
_atom_site_fract_x
_atom_site_fract_y
_atom_site_fract_z
_atom_site_occupancy
C1   C   0.577283973758398   0.459410383152331   0.491737476596875   1.0
C2   C   0.675966086788307   0.739969682071695   0.558826168168366   1.0
H3   H   0.796521445334740   0.691880022266396   0.638795374701459   1.0
H4   H   0.726097342159036   0.813238930527326   0.451203929183578   1.0
H5   H   0.447150310778888   0.572484632953518   0.266470792322146   1.0
H6   H   0.316674858285602   0.678517034709806   0.443105010498819   1.0
H7   H   0.666710661470006   0.281319672062502   0.411726076041994   1.0
H8   H   0.586543626098887   0.917057610904365   0.640212557996470   1.0
H9   H   0.524775853718445   0.386782786799287   0.598310702741657   1.0
H10   H   0.339135965903694   0.324954227935059   0.330145556019716   1.0
I11   I   0.469381041240993   0.839595987208661   0.013488597173868   1.0
I12   I   0.962755146610654   0.415426786931455   0.145178954305230   1.0
I13   I   0.122165088605989   0.150813341739827   0.615451297226009   1.0
N14   N   0.409737267991126   0.511018428030368   0.375591565467815   1.0
Ge15   Ge   0.091511331255241   0.869610472707464   0.907175941555948   1.0




# HOIP entry ID:                    0330
# Khazana ID:                       2180
# Organic cation source:            B.Saparov et al., Chem. Rev. 116, 4558 (2016)
# Label:                            Ethylammonium Germanium Iodide
# Material class:                   Hybrid organic-inorganic perovskite ( MC_ino )
# Geometry class:                   Bulk crystalline materials ( GC_cry )
# Organic cation chemical formula:  CH3CH2NH3
# Number of atom types:             5
# Total number of atoms:            15
# Atom types:                       C H N  Ge I
# Number of each atom:              2 8 1  1 3
# Bandgap, HSE06 (eV):              3.1503
# Bandgap, GGA (eV):                2.3649
# Kpoint for VBM:                   0, -0.3125, 0.2
# Kpoint for CBM:                   0.3, 0, 0.5
# Dielectric constant, electronic:  4.2018
# Dielectric constant, ionic:       4.063
# Dielectric constant, total:       8.2648
# Refractive index:                 2.0498
# Atomization energy (eV/atom):     -4.1547
# Relative energy1 (eV/atom):       0.306
# Relative energy2 (eV/atom):       0.404
# Volume of the unit cell (A^3):    260.42
# Density (g/cm^3):                 3.1845
# Tool:                             VASP
# Pseudopotential:                  PAW
# Note:                             ENCUT=400eV, k-spacing_relax=0.20/Angstrom, k-spacing_bandgap=0.15/Angstrom
# Created by:                       C.Kim, T.D.Huan, S.Krishnan, R. Ramprasad