data_1
_audit_creation_method   'Generated by vasp2cif'
_cell_length_a    6.12514015319
_cell_length_b    4.33403043738
_cell_length_c    9.84107059048
_cell_angle_alpha    90.3071765727
_cell_angle_beta    84.1289571975
_cell_angle_gamma    90.1231465711

_symmetry_space_group_name_H-M    'P 1'
loop_
_atom_site_label
_atom_site_type_symbol
_atom_site_fract_x
_atom_site_fract_y
_atom_site_fract_z
_atom_site_occupancy
C1   C   0.463277946582437   0.106384512319281   0.468684812708055   1.0
C2   C   0.644626257873455   0.113303298048209   0.563634142459826   1.0
H3   H   0.757968720427925   0.919279275578774   0.543671127824091   1.0
H4   H   0.739525744765047   0.328001347030025   0.553249089628459   1.0
H5   H   0.442319982395730   0.119684075431657   0.252463332258749   1.0
H6   H   0.665637171502354   0.935819327749599   0.294529892912436   1.0
H7   H   0.365096734438254   0.895422585865909   0.478763977950642   1.0
H8   H   0.571722545115598   0.097273500747086   0.669286403370222   1.0
H9   H   0.351373888612940   0.302273893711771   0.484731243241704   1.0
H10   H   0.658652334752681   0.313427204074891   0.300314679109619   1.0
I11   I   0.556709217360996   0.135371386856363   0.969138094008116   1.0
I12   I   0.045592722126912   0.622552382322873   0.237859916702774   1.0
I13   I   0.100909266618864   0.622740917898767   0.752569703754482   1.0
N14   N   0.560552953760727   0.119877553187798   0.320100076155498   1.0
Ge15   Ge   0.106324513666109   0.130738739177090   0.965873507915290   1.0




# HOIP entry ID:                    0331
# Khazana ID:                       2181
# Organic cation source:            B.Saparov et al., Chem. Rev. 116, 4558 (2016)
# Label:                            Ethylammonium Germanium Iodide
# Material class:                   Hybrid organic-inorganic perovskite ( MC_ino )
# Geometry class:                   Bulk crystalline materials ( GC_cry )
# Organic cation chemical formula:  CH3CH2NH3
# Number of atom types:             5
# Total number of atoms:            15
# Atom types:                       C H N  Ge I
# Number of each atom:              2 8 1  1 3
# Bandgap, HSE06 (eV):              2.8425
# Bandgap, GGA (eV):                2.0583
# Kpoint for VBM:                   -0.0833, 0, 0.375
# Kpoint for CBM:                   0.5, 0.5, 0.5
# Dielectric constant, electronic:  4.564
# Dielectric constant, ionic:       11.4376
# Dielectric constant, total:       16.0017
# Refractive index:                 2.1364
# Atomization energy (eV/atom):     -4.1436
# Relative energy1 (eV/atom):       0.317
# Relative energy2 (eV/atom):       0.4151
# Volume of the unit cell (A^3):    259.87
# Density (g/cm^3):                 3.1913
# Tool:                             VASP
# Pseudopotential:                  PAW
# Note:                             ENCUT=400eV, k-spacing_relax=0.20/Angstrom, k-spacing_bandgap=0.15/Angstrom
# Created by:                       C.Kim, T.D.Huan, S.Krishnan, R. Ramprasad