data_1
_audit_creation_method   'Generated by vasp2cif'
_cell_length_a    6.37561414477
_cell_length_b    4.7716908245
_cell_length_c    8.57869227653
_cell_angle_alpha    86.2911950072
_cell_angle_beta    86.3643287687
_cell_angle_gamma    78.6704487527

_symmetry_space_group_name_H-M    'P 1'
loop_
_atom_site_label
_atom_site_type_symbol
_atom_site_fract_x
_atom_site_fract_y
_atom_site_fract_z
_atom_site_occupancy
C1   C   0.476279222009147   0.530308576335663   0.524904490108945   1.0
C2   C   0.634727324324857   0.730458109447632   0.496659448370728   1.0
H3   H   0.784226729626468   0.623701670603104   0.439189113995766   1.0
H4   H   0.568163088973037   0.916850863513936   0.421836456038378   1.0
H5   H   0.531420069534143   0.374260835420856   0.295018206560094   1.0
H6   H   0.324881098452415   0.646314454071550   0.309633797560842   1.0
H7   H   0.546495883862988   0.327719071583005   0.584133981979022   1.0
H8   H   0.670717002142410   0.803385634294784   0.608192884299882   1.0
H9   H   0.331675150579720   0.626499998410921   0.591482136723251   1.0
H10   H   0.295542888680657   0.323333313279534   0.379445339521482   1.0
I11   I   0.557103696114609   0.708556673736311   0.970222207932771   1.0
I12   I   0.002171513049007   0.103349783155664   0.228696969285991   1.0
I13   I   0.036065106343990   0.144837736448977   0.713071365217999   1.0
N14   N   0.402949950504407   0.461597702039626   0.367924593432136   1.0
Ge15   Ge   0.000521275802136   0.539345577658430   0.957229008972725   1.0




# HOIP entry ID:                    0332
# Khazana ID:                       2182
# Organic cation source:            B.Saparov et al., Chem. Rev. 116, 4558 (2016)
# Label:                            Ethylammonium Germanium Iodide
# Material class:                   Hybrid organic-inorganic perovskite ( MC_ino )
# Geometry class:                   Bulk crystalline materials ( GC_cry )
# Organic cation chemical formula:  CH3CH2NH3
# Number of atom types:             5
# Total number of atoms:            15
# Atom types:                       C H N  Ge I
# Number of each atom:              2 8 1  1 3
# Bandgap, HSE06 (eV):              3.1363
# Bandgap, GGA (eV):                2.317
# Kpoint for VBM:                   0.5, 0.0556, 0.5
# Kpoint for CBM:                   0.4167, 0, 0.375
# Dielectric constant, electronic:  4.3675
# Dielectric constant, ionic:       8.3421
# Dielectric constant, total:       12.7096
# Refractive index:                 2.0899
# Atomization energy (eV/atom):     -4.1485
# Relative energy1 (eV/atom):       0.3122
# Relative energy2 (eV/atom):       0.4102
# Volume of the unit cell (A^3):    255.02
# Density (g/cm^3):                 3.252
# Tool:                             VASP
# Pseudopotential:                  PAW
# Note:                             ENCUT=400eV, k-spacing_relax=0.20/Angstrom, k-spacing_bandgap=0.15/Angstrom
# Created by:                       C.Kim, T.D.Huan, S.Krishnan, R. Ramprasad