data_1
_audit_creation_method   'Generated by vasp2cif'
_cell_length_a    8.64378356689
_cell_length_b    4.48538342334
_cell_length_c    6.95103667461
_cell_angle_alpha    72.602033871
_cell_angle_beta    90.5750640594
_cell_angle_gamma    93.063489505

_symmetry_space_group_name_H-M    'P 1'
loop_
_atom_site_label
_atom_site_type_symbol
_atom_site_fract_x
_atom_site_fract_y
_atom_site_fract_z
_atom_site_occupancy
C1   C   0.380533948112929   0.799024579692197   0.410409451000950   1.0
C2   C   0.503318975882559   0.559647851351086   0.436267839349565   1.0
H3   H   0.496331138225268   0.446731077868854   0.316818388906747   1.0
H4   H   0.618112980151749   0.677490913313705   0.426636953624823   1.0
H5   H   0.197422853918070   0.557182856270747   0.301928923557648   1.0
H6   H   0.132085314400875   0.791912395780372   0.421855758381448   1.0
H7   H   0.386041536224488   0.909861348393782   0.530253569950063   1.0
H8   H   0.492388807525108   0.382616415990999   0.583650631972938   1.0
H9   H   0.387673747994644   0.976528079826279   0.263032699663432   1.0
H10   H   0.205578668908206   0.453087016162967   0.555023117622649   1.0
I11   I   0.894372833412205   0.159339695743843   0.340792164539536   1.0
I12   I   0.164575221105018   0.931884494400620   0.879286310495115   1.0
I13   I   0.646349513546838   0.846439974871481   0.894713243186518   1.0
N14   N   0.219046508401091   0.639348144361280   0.423894057222718   1.0
Ge15   Ge   0.884347952190949   0.326245155971909   0.917986890525845   1.0




# HOIP entry ID:                    0333
# Khazana ID:                       2183
# Organic cation source:            B.Saparov et al., Chem. Rev. 116, 4558 (2016)
# Label:                            Ethylammonium Germanium Iodide
# Material class:                   Hybrid organic-inorganic perovskite ( MC_ino )
# Geometry class:                   Bulk crystalline materials ( GC_cry )
# Organic cation chemical formula:  CH3CH2NH3
# Number of atom types:             5
# Total number of atoms:            15
# Atom types:                       C H N  Ge I
# Number of each atom:              2 8 1  1 3
# Bandgap, HSE06 (eV):              3.0354
# Bandgap, GGA (eV):                2.2586
# Kpoint for VBM:                   0.5, 0.1667, 0.1667
# Kpoint for CBM:                   0, 0.0556, 0.5
# Dielectric constant, electronic:  4.3489
# Dielectric constant, ionic:       9.6976
# Dielectric constant, total:       14.0465
# Refractive index:                 2.0854
# Atomization energy (eV/atom):     -4.1511
# Relative energy1 (eV/atom):       0.3096
# Relative energy2 (eV/atom):       0.4076
# Volume of the unit cell (A^3):    256.79
# Density (g/cm^3):                 3.2296
# Tool:                             VASP
# Pseudopotential:                  PAW
# Note:                             ENCUT=400eV, k-spacing_relax=0.20/Angstrom, k-spacing_bandgap=0.15/Angstrom
# Created by:                       C.Kim, T.D.Huan, S.Krishnan, R. Ramprasad