data_1
_audit_creation_method   'Generated by vasp2cif'
_cell_length_a    11.48198384
_cell_length_b    4.95923040266
_cell_length_c    4.64883513959
_cell_angle_alpha    89.995257889
_cell_angle_beta    89.9335162018
_cell_angle_gamma    83.7781774137

_symmetry_space_group_name_H-M    'P 1'
loop_
_atom_site_label
_atom_site_type_symbol
_atom_site_fract_x
_atom_site_fract_y
_atom_site_fract_z
_atom_site_occupancy
C1   C   0.594970376332142   0.699513787253146   0.547729237264363   1.0
C2   C   0.520527728065957   0.464039575693398   0.523827681718551   1.0
H3   H   0.535714457776933   0.325060140495673   0.706202435732891   1.0
H4   H   0.427864571335093   0.542358507509299   0.523186371230551   1.0
H5   H   0.744903828946995   0.464574049529226   0.721410817186943   1.0
H6   H   0.775154953487430   0.756227378838872   0.571263123878097   1.0
H7   H   0.581800840634713   0.839476784429152   0.366431821370092   1.0
H8   H   0.539321404875643   0.350453285011909   0.324211560228385   1.0
H9   H   0.577640728336746   0.814762323237638   0.746187681693769   1.0
H10   H   0.749652640456560   0.489930709574217   0.365640385243424   1.0
I11   I   0.076323020128612   0.541203507581031   0.541415506960064   1.0
I12   I   0.810773496701081   0.072890547452232   0.049450827210883   1.0
I13   I   0.337865358275501   0.006549797321995   0.037469818494046   1.0
N14   N   0.724492501504571   0.597676773418847   0.551037245089624   1.0
Ge15   Ge   0.102664093142046   0.143932832653334   0.039835486698443   1.0




# HOIP entry ID:                    0334
# Khazana ID:                       2184
# Organic cation source:            B.Saparov et al., Chem. Rev. 116, 4558 (2016)
# Label:                            Ethylammonium Germanium Iodide
# Material class:                   Hybrid organic-inorganic perovskite ( MC_ino )
# Geometry class:                   Bulk crystalline materials ( GC_cry )
# Organic cation chemical formula:  CH3CH2NH3
# Number of atom types:             5
# Total number of atoms:            15
# Atom types:                       C H N  Ge I
# Number of each atom:              2 8 1  1 3
# Bandgap, HSE06 (eV):              2.2387
# Bandgap, GGA (eV):                1.4809
# Kpoint for VBM:                   0, -0.4375, 0.4444
# Kpoint for CBM:                   0, 0.5, 0
# Dielectric constant, electronic:  4.4137
# Dielectric constant, ionic:       5.1428
# Dielectric constant, total:       9.5565
# Refractive index:                 2.1009
# Atomization energy (eV/atom):     -4.1396
# Relative energy1 (eV/atom):       0.321
# Relative energy2 (eV/atom):       0.4191
# Volume of the unit cell (A^3):    263.15
# Density (g/cm^3):                 3.1515
# Tool:                             VASP
# Pseudopotential:                  PAW
# Note:                             ENCUT=400eV, k-spacing_relax=0.20/Angstrom, k-spacing_bandgap=0.15/Angstrom
# Created by:                       C.Kim, T.D.Huan, S.Krishnan, R. Ramprasad