data_1
_audit_creation_method   'Generated by vasp2cif'
_cell_length_a    8.62200250699
_cell_length_b    4.62424793108
_cell_length_c    6.77432511913
_cell_angle_alpha    93.8465620441
_cell_angle_beta    100.104313146
_cell_angle_gamma    97.9078038674

_symmetry_space_group_name_H-M    'P 1'
loop_
_atom_site_label
_atom_site_type_symbol
_atom_site_fract_x
_atom_site_fract_y
_atom_site_fract_z
_atom_site_occupancy
C1   C   0.607837008251572   0.657155344149167   0.534137946690080   1.0
C2   C   0.467326331161601   0.580579324315337   0.639176703687134   1.0
H3   H   0.373443528210991   0.421712991980861   0.544256068258008   1.0
H4   H   0.505668506302058   0.493810825248317   0.783322360653450   1.0
H5   H   0.721625132149967   0.298395737923514   0.621700353191230   1.0
H6   H   0.781312707156673   0.441562630747654   0.421775082272489   1.0
H7   H   0.571816965185974   0.740578548155980   0.388562046471513   1.0
H8   H   0.417165191795441   0.779955426222578   0.669897656817568   1.0
H9   H   0.702988776827802   0.811762135957927   0.628923999552541   1.0
H10   H   0.600842063415662   0.237113418910759   0.389319998944089   1.0
I11   I   0.049550964540664   0.913902446421154   0.540610047543083   1.0
I12   I   0.835275838902362   0.264995314897582   0.010556923773841   1.0
I13   I   0.343662392572767   0.032865450471704   0.112370263951753   1.0
N14   N   0.683275790910777   0.387935139183916   0.488362449068525   1.0
Ge15   Ge   0.128898802615737   0.370805265413637   0.871348099124681   1.0




# HOIP entry ID:                    0335
# Khazana ID:                       2185
# Organic cation source:            B.Saparov et al., Chem. Rev. 116, 4558 (2016)
# Label:                            Ethylammonium Germanium Iodide
# Material class:                   Hybrid organic-inorganic perovskite ( MC_ino )
# Geometry class:                   Bulk crystalline materials ( GC_cry )
# Organic cation chemical formula:  CH3CH2NH3
# Number of atom types:             5
# Total number of atoms:            15
# Atom types:                       C H N  Ge I
# Number of each atom:              2 8 1  1 3
# Bandgap, HSE06 (eV):              3.3347
# Bandgap, GGA (eV):                2.5147
# Kpoint for VBM:                   -0.125, -0.2222, 0.25
# Kpoint for CBM:                   0.125, 0, 0.25
# Dielectric constant, electronic:  4.1662
# Dielectric constant, ionic:       3.9196
# Dielectric constant, total:       8.0858
# Refractive index:                 2.0411
# Atomization energy (eV/atom):     -4.1395
# Relative energy1 (eV/atom):       0.3212
# Relative energy2 (eV/atom):       0.4192
# Volume of the unit cell (A^3):    262.22
# Density (g/cm^3):                 3.1627
# Tool:                             VASP
# Pseudopotential:                  PAW
# Note:                             ENCUT=400eV, k-spacing_relax=0.20/Angstrom, k-spacing_bandgap=0.15/Angstrom
# Created by:                       C.Kim, T.D.Huan, S.Krishnan, R. Ramprasad