data_1
_audit_creation_method   'Generated by vasp2cif'
_cell_length_a    6.28749347582
_cell_length_b    6.42401414805
_cell_length_c    7.6021714833
_cell_angle_alpha    102.240207885
_cell_angle_beta    79.1568446031
_cell_angle_gamma    91.5581103294

_symmetry_space_group_name_H-M    'P 1'
loop_
_atom_site_label
_atom_site_type_symbol
_atom_site_fract_x
_atom_site_fract_y
_atom_site_fract_z
_atom_site_occupancy
C1   C   0.403717910798953   0.683302019841165   0.609391348012089   1.0
C2   C   0.329166531101151   0.503386881609217   0.708030796458338   1.0
C3   C   0.446364440488161   0.512535349798839   0.868752953569079   1.0
H4   H   0.403797885164465   0.658395052187423   0.972713412081134   1.0
H5   H   0.402598829821443   0.376610352721734   0.932701228894196   1.0
H6   H   0.363304665993582   0.349912018573057   0.611314811249500   1.0
H7   H   0.153072728847555   0.514431860741134   0.756391282196311   1.0
H8   H   0.331204969927263   0.515751693852977   0.355967004041617   1.0
H9   H   0.352827866410884   0.779481895152500   0.367855188992159   1.0
H10   H   0.622211711628438   0.507916543708376   0.822268937779562   1.0
H11   H   0.358826007488886   0.840641445050451   0.695365661161340   1.0
H12   H   0.578140043024078   0.677261076131103   0.559073527832723   1.0
H13   H   0.132831366264341   0.682989536421296   0.479488573257846   1.0
I14   I   0.383912834147999   0.098335089269355   0.202189043585079   1.0
I15   I   0.872303116355148   0.573974593676489   0.178376397761220   1.0
I16   I   0.884223417272580   0.052896208646743   0.711970112710468   1.0
N17   N   0.298764230895294   0.663982283860214   0.442175057233364   1.0
Ge18   Ge   0.853131444369815   0.120086098757945   0.091724663184074   1.0




# HOIP entry ID:                    0337
# Khazana ID:                       2187
# Organic cation source:            S.Kataoka et al., J. Am. Chem. Soc. 137, 4158 (2015)
# Label:                            Propylammonium Germanium Iodide
# Material class:                   Hybrid organic-inorganic perovskite ( MC_ino )
# Geometry class:                   Bulk crystalline materials ( GC_cry )
# Organic cation chemical formula:  CH3CH2CH2NH3
# Number of atom types:             5
# Total number of atoms:            18
# Atom types:                       C H N  Ge I
# Number of each atom:              3 10 1  1 3
# Bandgap, HSE06 (eV):              2.5214
# Bandgap, GGA (eV):                1.8108
# Kpoint for VBM:                   0.5, 0.5, 0
# Kpoint for CBM:                   0.5, 0.5, 0.5
# Dielectric constant, electronic:  4.0313
# Dielectric constant, ionic:       2.7582
# Dielectric constant, total:       6.7895
# Refractive index:                 2.0078
# Atomization energy (eV/atom):     -4.3092
# Relative energy1 (eV/atom):       0.1998
# Relative energy2 (eV/atom):       0.2815
# Volume of the unit cell (A^3):    294.7
# Density (g/cm^3):                 2.8932
# Tool:                             VASP
# Pseudopotential:                  PAW
# Note:                             ENCUT=400eV, k-spacing_relax=0.20/Angstrom, k-spacing_bandgap=0.15/Angstrom
# Created by:                       C.Kim, T.D.Huan, S.Krishnan, R. Ramprasad