data_1
_audit_creation_method   'Generated by vasp2cif'
_cell_length_a    6.66774199716
_cell_length_b    6.29952866518
_cell_length_c    6.84829093497
_cell_angle_alpha    96.9121512488
_cell_angle_beta    82.8613276125
_cell_angle_gamma    95.7963167136

_symmetry_space_group_name_H-M    'P 1'
loop_
_atom_site_label
_atom_site_type_symbol
_atom_site_fract_x
_atom_site_fract_y
_atom_site_fract_z
_atom_site_occupancy
C1   C   0.502545684847099   0.572360543507671   0.616725276912284   1.0
C2   C   0.506007492594023   0.431672300219333   0.782607258771833   1.0
C3   C   0.594341422062435   0.216692362193996   0.709859827589646   1.0
H4   H   0.744353147417314   0.242195343484355   0.626783036035349   1.0
H5   H   0.610440215768079   0.130660577499754   0.835034067403562   1.0
H6   H   0.352466892898939   0.407014713877118   0.860695013556459   1.0
H7   H   0.599488323798710   0.523477863880238   0.889819401733199   1.0
H8   H   0.391556600939054   0.321238940142465   0.404385080713745   1.0
H9   H   0.352929347084661   0.569263360353226   0.360145460466846   1.0
H10   H   0.496971514949706   0.111912023875448   0.614201921015720   1.0
H11   H   0.451598516286374   0.729871576085095   0.671761487396680   1.0
H12   H   0.650269457956767   0.591544117250649   0.529351392202223   1.0
H13   H   0.208440300968718   0.455584737528639   0.540279210892905   1.0
I14   I   0.395026154193808   0.928802118526157   0.181836959369100   1.0
I15   I   0.930482013199139   0.371477814641871   0.176003873681367   1.0
I16   I   0.016101317713762   0.865073730811758   0.715686279409290   1.0
N17   N   0.354747221131177   0.471004884308179   0.471049969589089   1.0
Ge18   Ge   0.970834376190275   0.919282991814093   0.126444483260599   1.0




# HOIP entry ID:                    0339
# Khazana ID:                       2189
# Organic cation source:            S.Kataoka et al., J. Am. Chem. Soc. 137, 4158 (2015)
# Label:                            Propylammonium Germanium Iodide
# Material class:                   Hybrid organic-inorganic perovskite ( MC_ino )
# Geometry class:                   Bulk crystalline materials ( GC_cry )
# Organic cation chemical formula:  CH3CH2CH2NH3
# Number of atom types:             5
# Total number of atoms:            18
# Atom types:                       C H N  Ge I
# Number of each atom:              3 10 1  1 3
# Bandgap, HSE06 (eV):              2.4124
# Bandgap, GGA (eV):                1.6555
# Kpoint for VBM:                   0.5, 0.5, 0.2105
# Kpoint for CBM:                   0.5, 0.5, 0.5
# Dielectric constant, electronic:  4.3102
# Dielectric constant, ionic:       3.6328
# Dielectric constant, total:       7.9429
# Refractive index:                 2.0761
# Atomization energy (eV/atom):     -4.3095
# Relative energy1 (eV/atom):       0.1994
# Relative energy2 (eV/atom):       0.2811
# Volume of the unit cell (A^3):    282.27
# Density (g/cm^3):                 3.0206
# Tool:                             VASP
# Pseudopotential:                  PAW
# Note:                             ENCUT=400eV, k-spacing_relax=0.20/Angstrom, k-spacing_bandgap=0.15/Angstrom
# Created by:                       C.Kim, T.D.Huan, S.Krishnan, R. Ramprasad