data_1
_audit_creation_method   'Generated by vasp2cif'
_cell_length_a    6.74984937207
_cell_length_b    6.62524525012
_cell_length_c    6.55936059115
_cell_angle_alpha    79.0529866755
_cell_angle_beta    89.8195778416
_cell_angle_gamma    83.1375299004

_symmetry_space_group_name_H-M    'P 1'
loop_
_atom_site_label
_atom_site_type_symbol
_atom_site_fract_x
_atom_site_fract_y
_atom_site_fract_z
_atom_site_occupancy
C1   C   0.587053840505021   0.588019764886589   0.358068558969713   1.0
C2   C   0.610949504045145   0.402894647134900   0.249048227690238   1.0
C3   C   0.415983204103988   0.308343679205677   0.232447311844751   1.0
H4   H   0.296876756034507   0.423788556387216   0.154181093877263   1.0
H5   H   0.438593880195626   0.183178786141653   0.144891892007003   1.0
H6   H   0.727464916266541   0.285086644024837   0.329173184471514   1.0
H7   H   0.667998219083458   0.457897386641783   0.094175722773009   1.0
H8   H   0.582257309273814   0.394376065722724   0.656378236795049   1.0
H9   H   0.354881722987805   0.502881267567496   0.570987092866325   1.0
H10   H   0.362147301980663   0.241172424079572   0.385150673303805   1.0
H11   H   0.729022585521207   0.644409418593391   0.380198927059652   1.0
H12   H   0.482278567951020   0.715704317538687   0.276378521430068   1.0
H13   H   0.513946046300823   0.645368170876374   0.657940368837373   1.0
I14   I   0.597171616258976   0.957926649832636   0.811149727782997   1.0
I15   I   0.017958828257804   0.386345063857007   0.765107043660421   1.0
I16   I   0.049953460616763   0.901811860556691   0.291378592841553   1.0
N17   N   0.502902755060660   0.528327528473739   0.575049532912118   1.0
Ge18   Ge   0.025569485556225   0.951167768479110   0.861675290877301   1.0




# HOIP entry ID:                    0340
# Khazana ID:                       2190
# Organic cation source:            S.Kataoka et al., J. Am. Chem. Soc. 137, 4158 (2015)
# Label:                            Propylammonium Germanium Iodide
# Material class:                   Hybrid organic-inorganic perovskite ( MC_ino )
# Geometry class:                   Bulk crystalline materials ( GC_cry )
# Organic cation chemical formula:  CH3CH2CH2NH3
# Number of atom types:             5
# Total number of atoms:            18
# Atom types:                       C H N  Ge I
# Number of each atom:              3 10 1  1 3
# Bandgap, HSE06 (eV):              2.4983
# Bandgap, GGA (eV):                1.7596
# Kpoint for VBM:                   0.5, 0.5, 0.5
# Kpoint for CBM:                   0.5, 0.5, 0.5
# Dielectric constant, electronic:  4.1371
# Dielectric constant, ionic:       2.5872
# Dielectric constant, total:       6.7243
# Refractive index:                 2.034
# Atomization energy (eV/atom):     -4.3094
# Relative energy1 (eV/atom):       0.1995
# Relative energy2 (eV/atom):       0.2813
# Volume of the unit cell (A^3):    285.87
# Density (g/cm^3):                 2.9825
# Tool:                             VASP
# Pseudopotential:                  PAW
# Note:                             ENCUT=400eV, k-spacing_relax=0.20/Angstrom, k-spacing_bandgap=0.15/Angstrom
# Created by:                       C.Kim, T.D.Huan, S.Krishnan, R. Ramprasad