data_1
_audit_creation_method   'Generated by vasp2cif'
_cell_length_a    6.62945842595
_cell_length_b    6.36772291356
_cell_length_c    6.8357660637
_cell_angle_alpha    82.7757661554
_cell_angle_beta    78.6018029072
_cell_angle_gamma    80.758897481

_symmetry_space_group_name_H-M    'P 1'
loop_
_atom_site_label
_atom_site_type_symbol
_atom_site_fract_x
_atom_site_fract_y
_atom_site_fract_z
_atom_site_occupancy
C1   C   0.542494357730973   0.609430561805652   0.338590279612241   1.0
C2   C   0.527893302429817   0.465755491417490   0.180854003111776   1.0
C3   C   0.414495357215131   0.273328328575658   0.265030730807865   1.0
H4   H   0.256014321885871   0.325241121003259   0.340855943289348   1.0
H5   H   0.405537115289270   0.181542218080594   0.143758999549704   1.0
H6   H   0.684330126948225   0.413991605912337   0.099102241240999   1.0
H7   H   0.444530827276445   0.565930557307468   0.071741607113054   1.0
H8   H   0.835709310041601   0.457332235245751   0.404157581967794   1.0
H9   H   0.637215059837828   0.355807901723196   0.555510542887809   1.0
H10   H   0.494044230344663   0.164270466432526   0.371745834326546   1.0
H11   H   0.608283040996874   0.754049753408694   0.272175168273805   1.0
H12   H   0.392401976885957   0.652761430054483   0.433636182876114   1.0
H13   H   0.693658091181497   0.594929942938982   0.587882223452333   1.0
I14   I   0.587506606557902   0.958405242559380   0.781924446579140   1.0
I15   I   0.088167017751900   0.457444650013194   0.801566177880048   1.0
I16   I   0.014393178179653   0.933409605033297   0.248036461263965   1.0
N17   N   0.686742098789146   0.495637203745723   0.480884250306971   1.0
Ge18   Ge   0.136973980657189   0.006691684742293   0.831927325460377   1.0




# HOIP entry ID:                    0341
# Khazana ID:                       2191
# Organic cation source:            S.Kataoka et al., J. Am. Chem. Soc. 137, 4158 (2015)
# Label:                            Propylammonium Germanium Iodide
# Material class:                   Hybrid organic-inorganic perovskite ( MC_ino )
# Geometry class:                   Bulk crystalline materials ( GC_cry )
# Organic cation chemical formula:  CH3CH2CH2NH3
# Number of atom types:             5
# Total number of atoms:            18
# Atom types:                       C H N  Ge I
# Number of each atom:              3 10 1  1 3
# Bandgap, HSE06 (eV):              2.5748
# Bandgap, GGA (eV):                1.8304
# Kpoint for VBM:                   0.5, 0.5, 0.2368
# Kpoint for CBM:                   0.5, 0.5, 0.3947
# Dielectric constant, electronic:  4.3688
# Dielectric constant, ionic:       4.066
# Dielectric constant, total:       8.4348
# Refractive index:                 2.0902
# Atomization energy (eV/atom):     -4.3087
# Relative energy1 (eV/atom):       0.2002
# Relative energy2 (eV/atom):       0.2819
# Volume of the unit cell (A^3):    277.88
# Density (g/cm^3):                 3.0683
# Tool:                             VASP
# Pseudopotential:                  PAW
# Note:                             ENCUT=400eV, k-spacing_relax=0.20/Angstrom, k-spacing_bandgap=0.15/Angstrom
# Created by:                       C.Kim, T.D.Huan, S.Krishnan, R. Ramprasad