data_1
_audit_creation_method   'Generated by vasp2cif'
_cell_length_a    8.23462636443
_cell_length_b    4.6135725369
_cell_length_c    7.87496950037
_cell_angle_alpha    77.3213327441
_cell_angle_beta    88.1694256991
_cell_angle_gamma    77.3820952099

_symmetry_space_group_name_H-M    'P 1'
loop_
_atom_site_label
_atom_site_type_symbol
_atom_site_fract_x
_atom_site_fract_y
_atom_site_fract_z
_atom_site_occupancy
C1   C   0.903634430702603   0.359284048614207   0.381240201205166   1.0
C2   C   0.750946109857672   0.218551613695794   0.417445141730923   1.0
C3   C   0.674892908076920   0.202756687895523   0.244501017999575   1.0
H4   H   0.565756027226143   0.101869970408785   0.269134462745612   1.0
H5   H   0.764903664276957   0.065165113439178   0.172297535537723   1.0
H6   H   0.786978853119514   0.988535816211531   0.499616546779812   1.0
H7   H   0.658781102666488   0.350274759883384   0.490918055555731   1.0
H8   H   0.049293340202986   0.064514327914580   0.595565789741912   1.0
H9   H   0.961462962501066   0.398717938923276   0.639128719436648   1.0
H10   H   0.981678426796506   0.264935317570078   0.283605959491624   1.0
H11   H   0.637652137243471   0.430296086252511   0.160733158873832   1.0
H12   H   0.870288060266240   0.605989863055697   0.336241011121004   1.0
H13   H   0.123933630672511   0.372680055992809   0.506351430054103   1.0
I14   I   0.434122582050143   0.932110452017760   0.765520507164346   1.0
I15   I   0.952549341081358   0.678777541925747   0.894736242717194   1.0
I16   I   0.278579579483505   0.764074227438563   0.300111370278778   1.0
N17   N   0.015878123381249   0.294244201723927   0.540863478336426   1.0
Ge18   Ge   0.296018720394692   0.478441977036638   0.997609371229615   1.0




# HOIP entry ID:                    0342
# Khazana ID:                       2192
# Organic cation source:            S.Kataoka et al., J. Am. Chem. Soc. 137, 4158 (2015)
# Label:                            Propylammonium Germanium Iodide
# Material class:                   Hybrid organic-inorganic perovskite ( MC_ino )
# Geometry class:                   Bulk crystalline materials ( GC_cry )
# Organic cation chemical formula:  CH3CH2CH2NH3
# Number of atom types:             5
# Total number of atoms:            18
# Atom types:                       C H N  Ge I
# Number of each atom:              3 10 1  1 3
# Bandgap, HSE06 (eV):              3.3188
# Bandgap, GGA (eV):                2.507
# Kpoint for VBM:                   0.2, 0.2222, 0.2
# Kpoint for CBM:                   0.4, 0, 0.4
# Dielectric constant, electronic:  3.9838
# Dielectric constant, ionic:       3.425
# Dielectric constant, total:       7.4088
# Refractive index:                 1.996
# Atomization energy (eV/atom):     -4.3051
# Relative energy1 (eV/atom):       0.2038
# Relative energy2 (eV/atom):       0.2855
# Volume of the unit cell (A^3):    284.79
# Density (g/cm^3):                 2.9938
# Tool:                             VASP
# Pseudopotential:                  PAW
# Note:                             ENCUT=400eV, k-spacing_relax=0.20/Angstrom, k-spacing_bandgap=0.15/Angstrom
# Created by:                       C.Kim, T.D.Huan, S.Krishnan, R. Ramprasad