data_1
_audit_creation_method   'Generated by vasp2cif'
_cell_length_a    8.63754932295
_cell_length_b    4.72443812174
_cell_length_c    8.30865954766
_cell_angle_alpha    86.7697919071
_cell_angle_beta    115.958333351
_cell_angle_gamma    105.901960073

_symmetry_space_group_name_H-M    'P 1'
loop_
_atom_site_label
_atom_site_type_symbol
_atom_site_fract_x
_atom_site_fract_y
_atom_site_fract_z
_atom_site_occupancy
C1   C   0.891564717730546   0.544274075255615   0.376568643633064   1.0
C2   C   0.756231735093778   0.644162661171421   0.413926204195178   1.0
C3   C   0.633681833459924   0.770521588618529   0.247964484768232   1.0
H4   H   0.710698181434211   0.934899141608405   0.192752820564713   1.0
H5   H   0.551028548834310   0.873406759043846   0.280842476707676   1.0
H6   H   0.675430978476534   0.457967296222662   0.453587757818504   1.0
H7   H   0.827505141578882   0.807637896843232   0.529511264129795   1.0
H8   H   0.942445976904310   0.275473257243107   0.599229978872579   1.0
H9   H   0.103347070342743   0.589882070498412   0.639822523317257   1.0
H10   H   0.826471453429946   0.372210211703432   0.266964593147705   1.0
H11   H   0.543652971131777   0.596649330904015   0.140972477764819   1.0
H12   H   0.980017778826998   0.727618879903176   0.344692960025206   1.0
H13   H   0.089807715580520   0.317589239087113   0.510202929058210   1.0
I14   I   0.296456439902528   0.037588784870778   0.864766500293044   1.0
I15   I   0.788334982300988   0.099302404964980   0.836364440724523   1.0
I16   I   0.273886591323162   0.254585790779345   0.343242070916503   1.0
N17   N   0.013525478821507   0.420841411237518   0.541269596254359   1.0
Ge18   Ge   0.072672404827287   0.830639200044459   0.037558277808579   1.0




# HOIP entry ID:                    0343
# Khazana ID:                       2193
# Organic cation source:            S.Kataoka et al., J. Am. Chem. Soc. 137, 4158 (2015)
# Label:                            Propylammonium Germanium Iodide
# Material class:                   Hybrid organic-inorganic perovskite ( MC_ino )
# Geometry class:                   Bulk crystalline materials ( GC_cry )
# Organic cation chemical formula:  CH3CH2CH2NH3
# Number of atom types:             5
# Total number of atoms:            18
# Atom types:                       C H N  Ge I
# Number of each atom:              3 10 1  1 3
# Bandgap, HSE06 (eV):              3.4475
# Bandgap, GGA (eV):                2.6121
# Kpoint for VBM:                   -0.2, -0.2222, 0.4167
# Kpoint for CBM:                   -0.1, -0.1667, 0.1667
# Dielectric constant, electronic:  3.7424
# Dielectric constant, ionic:       4.7807
# Dielectric constant, total:       8.5231
# Refractive index:                 1.9345
# Atomization energy (eV/atom):     -4.3014
# Relative energy1 (eV/atom):       0.2076
# Relative energy2 (eV/atom):       0.2893
# Volume of the unit cell (A^3):    292.39
# Density (g/cm^3):                 2.916
# Tool:                             VASP
# Pseudopotential:                  PAW
# Note:                             ENCUT=400eV, k-spacing_relax=0.20/Angstrom, k-spacing_bandgap=0.15/Angstrom
# Created by:                       C.Kim, T.D.Huan, S.Krishnan, R. Ramprasad