data_1
_audit_creation_method   'Generated by vasp2cif'
_cell_length_a    8.38161058621
_cell_length_b    4.88704956812
_cell_length_c    8.39810350227
_cell_angle_alpha    94.3294127776
_cell_angle_beta    115.985141252
_cell_angle_gamma    72.1104367126

_symmetry_space_group_name_H-M    'P 1'
loop_
_atom_site_label
_atom_site_type_symbol
_atom_site_fract_x
_atom_site_fract_y
_atom_site_fract_z
_atom_site_occupancy
C1   C   0.176925959007356   0.422430794161741   0.669458755614365   1.0
C2   C   0.287482759740939   0.581734478759607   0.630165757085614   1.0
C3   C   0.424766609588964   0.669353236606199   0.802464515094051   1.0
H4   H   0.526578084748486   0.479945916671447   0.890301827570724   1.0
H5   H   0.352861759359463   0.804553361496417   0.876064379243402   1.0
H6   H   0.362895291296382   0.445248342247879   0.559822102123213   1.0
H7   H   0.190141400601028   0.771637224797367   0.539808967557498   1.0
H8   H   0.092771476801083   0.229089339529907   0.422326424314278   1.0
H9   H   0.937034482525569   0.539853716319584   0.420050982335553   1.0
H10   H   0.266024647687274   0.219237821123762   0.747478145824246   1.0
H11   H   0.501850112442455   0.787745043197226   0.773755528253162   1.0
H12   H   0.099932901615716   0.553522582053148   0.739144239217502   1.0
H13   H   0.956338888663502   0.244570869992430   0.524929535557654   1.0
I14   I   0.748910842530677   0.967848396932084   0.176633562908890   1.0
I15   I   0.278250176292666   0.993224231226336   0.227217457385841   1.0
I16   I   0.793183094349267   0.117637545543339   0.705229154142629   1.0
N17   N   0.031597601485231   0.353224528482222   0.498553821758321   1.0
Ge18   Ge   0.994053911263855   0.735662570859375   0.020944844013059   1.0




# HOIP entry ID:                    0346
# Khazana ID:                       2196
# Organic cation source:            S.Kataoka et al., J. Am. Chem. Soc. 137, 4158 (2015)
# Label:                            Propylammonium Germanium Iodide
# Material class:                   Hybrid organic-inorganic perovskite ( MC_ino )
# Geometry class:                   Bulk crystalline materials ( GC_cry )
# Organic cation chemical formula:  CH3CH2CH2NH3
# Number of atom types:             5
# Total number of atoms:            18
# Atom types:                       C H N  Ge I
# Number of each atom:              3 10 1  1 3
# Bandgap, HSE06 (eV):              3.4616
# Bandgap, GGA (eV):                2.6083
# Kpoint for VBM:                   -0.3, 0.25, 0.5
# Kpoint for CBM:                   0, 0.1579, 0
# Dielectric constant, electronic:  3.7124
# Dielectric constant, ionic:       2.8732
# Dielectric constant, total:       6.5855
# Refractive index:                 1.9267
# Atomization energy (eV/atom):     -4.3024
# Relative energy1 (eV/atom):       0.2065
# Relative energy2 (eV/atom):       0.2882
# Volume of the unit cell (A^3):    293.57
# Density (g/cm^3):                 2.9043
# Tool:                             VASP
# Pseudopotential:                  PAW
# Note:                             ENCUT=400eV, k-spacing_relax=0.20/Angstrom, k-spacing_bandgap=0.15/Angstrom
# Created by:                       C.Kim, T.D.Huan, S.Krishnan, R. Ramprasad