data_1
_audit_creation_method   'Generated by vasp2cif'
_cell_length_a    6.33211677663
_cell_length_b    6.37789069234
_cell_length_c    10.1680834803
_cell_angle_alpha    59.1230234619
_cell_angle_beta    123.276937303
_cell_angle_gamma    97.6212195611

_symmetry_space_group_name_H-M    'P 1'
loop_
_atom_site_label
_atom_site_type_symbol
_atom_site_fract_x
_atom_site_fract_y
_atom_site_fract_z
_atom_site_occupancy
C1   C   0.882053464523509   0.606571224529013   0.377938957203817   1.0
C2   C   0.716814207969279   0.772211695302133   0.370062361278684   1.0
C3   C   0.548861659917733   0.999104535826469   0.172437624411792   1.0
H4   H   0.669165996755659   0.109508357064662   0.127744816867839   1.0
H5   H   0.432469279182705   0.117368290469308   0.167459754338175   1.0
H6   H   0.595860049040439   0.664068927065877   0.416121072252459   1.0
H7   H   0.842144280475921   0.834993345769313   0.465503593769810   1.0
H8   H   0.966657959421703   0.288974639363268   0.635336926513887   1.0
H9   H   0.196175372298988   0.453163210239204   0.660634254923323   1.0
H10   H   0.764816962589371   0.523637582893357   0.295977650270586   1.0
H11   H   0.419264787997818   0.943150608438962   0.073651621863547   1.0
H12   H   0.003193590155121   0.708485181874941   0.330432830926775   1.0
H13   H   0.168437004324531   0.269410239946580   0.581650232698294   1.0
I14   I   0.308112728990260   0.698885787749731   0.853193981992924   1.0
I15   I   0.790722242775637   0.194543817151022   0.849627575357339   1.0
I16   I   0.261648314519100   0.242195160408798   0.338214523509386   1.0
N17   N   0.065775628548693   0.389339219730367   0.576598940564907   1.0
Ge18   Ge   0.937026470513572   0.561978176177021   0.947023281256556   1.0




# HOIP entry ID:                    0347
# Khazana ID:                       2197
# Organic cation source:            S.Kataoka et al., J. Am. Chem. Soc. 137, 4158 (2015)
# Label:                            Propylammonium Germanium Iodide
# Material class:                   Hybrid organic-inorganic perovskite ( MC_ino )
# Geometry class:                   Bulk crystalline materials ( GC_cry )
# Organic cation chemical formula:  CH3CH2CH2NH3
# Number of atom types:             5
# Total number of atoms:            18
# Atom types:                       C H N  Ge I
# Number of each atom:              3 10 1  1 3
# Bandgap, HSE06 (eV):              2.5425
# Bandgap, GGA (eV):                1.849
# Kpoint for VBM:                   0.5, 0.5, 0
# Kpoint for CBM:                   0.4474, 0.4474, 0.4474
# Dielectric constant, electronic:  4.1819
# Dielectric constant, ionic:       4.0594
# Dielectric constant, total:       8.2413
# Refractive index:                 2.045
# Atomization energy (eV/atom):     -4.3066
# Relative energy1 (eV/atom):       0.2024
# Relative energy2 (eV/atom):       0.2841
# Volume of the unit cell (A^3):    288.23
# Density (g/cm^3):                 2.9581
# Tool:                             VASP
# Pseudopotential:                  PAW
# Note:                             ENCUT=400eV, k-spacing_relax=0.20/Angstrom, k-spacing_bandgap=0.15/Angstrom
# Created by:                       C.Kim, T.D.Huan, S.Krishnan, R. Ramprasad