data_1
_audit_creation_method   'Generated by vasp2cif'
_cell_length_a    8.04104558405
_cell_length_b    6.29016897828
_cell_length_c    6.75062364906
_cell_angle_alpha    79.8378856539
_cell_angle_beta    105.960861385
_cell_angle_gamma    105.623393479

_symmetry_space_group_name_H-M    'P 1'
loop_
_atom_site_label
_atom_site_type_symbol
_atom_site_fract_x
_atom_site_fract_y
_atom_site_fract_z
_atom_site_occupancy
C1   C   0.196567154996046   0.656460235103765   0.508775825228007   1.0
C2   C   0.495001536250996   0.270844468560590   0.474692008463691   1.0
C3   C   0.334820474207632   0.371981915057681   0.431214066285158   1.0
C4   C   0.367130233742877   0.575031893706424   0.546845127252418   1.0
H5   H   0.581802663150931   0.422911425432261   0.202126986990031   1.0
H6   H   0.740943230000248   0.341358635328767   0.390724175918180   1.0
H7   H   0.680917432993866   0.573615228928695   0.403030310575907   1.0
H8   H   0.141773322890479   0.693428520348824   0.342835144298078   1.0
H9   H   0.094870690757745   0.529885162521190   0.571681210180735   1.0
H10   H   0.221760318508899   0.806355451482915   0.582835179815255   1.0
H11   H   0.227120341977816   0.241585449581770   0.477637012377322   1.0
H12   H   0.288332810522391   0.414526792841038   0.263228461865211   1.0
H13   H   0.416714521843829   0.530539237693802   0.713784161177401   1.0
H14   H   0.471083081448448   0.710908086169631   0.497766863182768   1.0
H15   H   0.562653533217976   0.258637359301112   0.638566219685096   1.0
H16   H   0.459613178996285   0.107956893603557   0.419958426265460   1.0
I17   I   0.347193823841451   0.996735139281824   0.982108339621469   1.0
I18   I   0.863797576467149   0.980647021702374   0.475207801939078   1.0
I19   I   0.881585923405460   0.457898171490825   0.955408296715234   1.0
N20   N   0.633600564613467   0.413673002280184   0.360253860213000   1.0
Ge21   Ge   0.976427586166061   0.928089909582887   0.919050521950524   1.0




# HOIP entry ID:                    0348
# Khazana ID:                       2198
# Organic cation source:            H. Hu et al., Sci. Rep. 6, 33546 (2016)
# Label:                            Butylammonium Germanium Iodide
# Material class:                   Hybrid organic-inorganic perovskite ( MC_ino )
# Geometry class:                   Bulk crystalline materials ( GC_cry )
# Organic cation chemical formula:  CH3CH2CH2CH2NH3
# Number of atom types:             5
# Total number of atoms:            21
# Atom types:                       C H N  Ge I
# Number of each atom:              4 12 1  1 3
# Bandgap, HSE06 (eV):              2.7668
# Bandgap, GGA (eV):                2.0362
# Kpoint for VBM:                   0.1, 0.5, 0.5
# Kpoint for CBM:                   0.4474, 0.4474, 0.4474
# Dielectric constant, electronic:  3.7934
# Dielectric constant, ionic:       2.7105
# Dielectric constant, total:       6.5039
# Refractive index:                 1.9477
# Atomization energy (eV/atom):     -4.4173
# Relative energy1 (eV/atom):       0.1262
# Relative energy2 (eV/atom):       0.1962
# Volume of the unit cell (A^3):    314.21
# Density (g/cm^3):                 2.7876
# Tool:                             VASP
# Pseudopotential:                  PAW
# Note:                             ENCUT=400eV, k-spacing_relax=0.20/Angstrom, k-spacing_bandgap=0.15/Angstrom
# Created by:                       C.Kim, T.D.Huan, S.Krishnan, R. Ramprasad