data_1
_audit_creation_method   'Generated by vasp2cif'
_cell_length_a    6.75127496886
_cell_length_b    6.27674024626
_cell_length_c    8.05338736909
_cell_angle_alpha    74.4599224522
_cell_angle_beta    74.0133399097
_cell_angle_gamma    79.8754322422

_symmetry_space_group_name_H-M    'P 1'
loop_
_atom_site_label
_atom_site_type_symbol
_atom_site_fract_x
_atom_site_fract_y
_atom_site_fract_z
_atom_site_occupancy
C1   C   0.525430376546197   0.671200141411475   0.802083195443785   1.0
C2   C   0.491227120421740   0.283829894690392   0.504729846657455   1.0
C3   C   0.449482796201117   0.384189888800883   0.665079317223643   1.0
C4   C   0.560664098514188   0.591364009920341   0.631248079396592   1.0
H5   H   0.215900383709794   0.434750458095117   0.422784983028727   1.0
H6   H   0.401914978299018   0.353957137664615   0.261610513211984   1.0
H7   H   0.415708905088159   0.586807324168454   0.320890684832996   1.0
H8   H   0.359769943972587   0.702088040949491   0.861212279314238   1.0
H9   H   0.594631868966509   0.545965997391988   0.900386332016716   1.0
H10   H   0.595088655233404   0.824457976431866   0.776326896253480   1.0
H11   H   0.501067466192694   0.254563737524862   0.770460823826909   1.0
H12   H   0.281429207255862   0.422240155373991   0.715116503594416   1.0
H13   H   0.727575343653328   0.551789378288831   0.577515332987609   1.0
H14   H   0.505790295055903   0.726657179708120   0.530130474887528   1.0
H15   H   0.654555463478083   0.273568379201961   0.435286998965175   1.0
H16   H   0.437937923041623   0.119894209530479   0.540030445401463   1.0
I17   I   0.997574398624351   0.011981917636689   0.654676976407529   1.0
I18   I   0.487824275573914   0.994649461157366   0.136008382030610   1.0
I19   I   0.970778927772251   0.473867730310516   0.119040842118359   1.0
N20   N   0.373591671717548   0.426343637910193   0.368699942415873   1.0
Ge21   Ge   0.932105900681748   0.944723343832074   0.024961149985557   1.0




# HOIP entry ID:                    0349
# Khazana ID:                       2199
# Organic cation source:            H. Hu et al., Sci. Rep. 6, 33546 (2016)
# Label:                            Butylammonium Germanium Iodide
# Material class:                   Hybrid organic-inorganic perovskite ( MC_ino )
# Geometry class:                   Bulk crystalline materials ( GC_cry )
# Organic cation chemical formula:  CH3CH2CH2CH2NH3
# Number of atom types:             5
# Total number of atoms:            21
# Atom types:                       C H N  Ge I
# Number of each atom:              4 12 1  1 3
# Bandgap, HSE06 (eV):              2.76
# Bandgap, GGA (eV):                1.9921
# Kpoint for VBM:                   0.5, 0.5, 0
# Kpoint for CBM:                   0.5, 0.5, 0.5
# Dielectric constant, electronic:  3.7989
# Dielectric constant, ionic:       2.3385
# Dielectric constant, total:       6.1374
# Refractive index:                 1.9491
# Atomization energy (eV/atom):     -4.4174
# Relative energy1 (eV/atom):       0.1261
# Relative energy2 (eV/atom):       0.1961
# Volume of the unit cell (A^3):    314.16
# Density (g/cm^3):                 2.7881
# Tool:                             VASP
# Pseudopotential:                  PAW
# Note:                             ENCUT=400eV, k-spacing_relax=0.20/Angstrom, k-spacing_bandgap=0.15/Angstrom
# Created by:                       C.Kim, T.D.Huan, S.Krishnan, R. Ramprasad