data_1
_audit_creation_method   'Generated by vasp2cif'
_cell_length_a    6.77382089278
_cell_length_b    7.44009656997
_cell_length_c    6.68034329117
_cell_angle_alpha    79.0184776989
_cell_angle_beta    97.6987409875
_cell_angle_gamma    109.895402026

_symmetry_space_group_name_H-M    'P 1'
loop_
_atom_site_label
_atom_site_type_symbol
_atom_site_fract_x
_atom_site_fract_y
_atom_site_fract_z
_atom_site_occupancy
C1   C   0.204684427966683   0.669078764608180   0.532090842555917   1.0
C2   C   0.431521280310470   0.281950481031252   0.419910657346342   1.0
C3   C   0.334270388515783   0.443467514997252   0.382115841388419   1.0
C4   C   0.291472834892431   0.499317858599042   0.578744050838104   1.0
H5   H   0.746570921645542   0.468125588207933   0.427508867882409   1.0
H6   H   0.722515703521175   0.241265885248872   0.537275439845892   1.0
H7   H   0.660047862073291   0.388103103036343   0.662371233068100   1.0
H8   H   0.321540931593269   0.800638787454723   0.462509586259301   1.0
H9   H   0.065992980051774   0.639707754483048   0.423057925826207   1.0
H10   H   0.161723948764944   0.698229302004322   0.671069202234513   1.0
H11   H   0.185857709574527   0.393734471584750   0.288800806877035   1.0
H12   H   0.434948936850361   0.571280373002928   0.288200373424829   1.0
H13   H   0.180065640382217   0.372616584601190   0.664424717550304   1.0
H14   H   0.435661147825613   0.539224482315035   0.680515060278580   1.0
H15   H   0.344519742346812   0.155854064127730   0.523088260290216   1.0
H16   H   0.445830456184034   0.236524676967903   0.278272094274101   1.0
I17   I   0.394213439665378   0.980462832518548   0.972544385883928   1.0
I18   I   0.847175507888657   0.959605740037240   0.502885627087274   1.0
I19   I   0.823728345662317   0.525356217926252   0.009485648805118   1.0
N20   N   0.654878488438989   0.350155700714510   0.520122528013211   1.0
Ge21   Ge   0.960689305845683   0.931629816532975   0.937186850270194   1.0




# HOIP entry ID:                    0350
# Khazana ID:                       2200
# Organic cation source:            H. Hu et al., Sci. Rep. 6, 33546 (2016)
# Label:                            Butylammonium Germanium Iodide
# Material class:                   Hybrid organic-inorganic perovskite ( MC_ino )
# Geometry class:                   Bulk crystalline materials ( GC_cry )
# Organic cation chemical formula:  CH3CH2CH2CH2NH3
# Number of atom types:             5
# Total number of atoms:            21
# Atom types:                       C H N  Ge I
# Number of each atom:              4 12 1  1 3
# Bandgap, HSE06 (eV):              2.8819
# Bandgap, GGA (eV):                2.0269
# Kpoint for VBM:                   0.5, 0.5, 0.5
# Kpoint for CBM:                   0.5, 0.5, 0.5
# Dielectric constant, electronic:  3.831
# Dielectric constant, ionic:       1.8745
# Dielectric constant, total:       5.7055
# Refractive index:                 1.9573
# Atomization energy (eV/atom):     -4.418
# Relative energy1 (eV/atom):       0.1254
# Relative energy2 (eV/atom):       0.1955
# Volume of the unit cell (A^3):    309.91
# Density (g/cm^3):                 2.8263
# Tool:                             VASP
# Pseudopotential:                  PAW
# Note:                             ENCUT=400eV, k-spacing_relax=0.20/Angstrom, k-spacing_bandgap=0.15/Angstrom
# Created by:                       C.Kim, T.D.Huan, S.Krishnan, R. Ramprasad