data_1
_audit_creation_method   'Generated by vasp2cif'
_cell_length_a    6.26106953518
_cell_length_b    6.75654910923
_cell_length_c    6.81898455207
_cell_angle_alpha    89.0350250054
_cell_angle_beta    94.8261779208
_cell_angle_gamma    80.7888265153

_symmetry_space_group_name_H-M    'P 1'
loop_
_atom_site_label
_atom_site_type_symbol
_atom_site_fract_x
_atom_site_fract_y
_atom_site_fract_z
_atom_site_occupancy
C1   C   0.240356163498184   0.802500635512096   0.524231398422842   1.0
C2   C   0.348701045654686   0.874788921576588   0.350361078102644   1.0
C3   C   0.554556846147250   0.960595268757586   0.410199252936813   1.0
H4   H   0.511424670439659   0.093975628228954   0.495997749576603   1.0
H5   H   0.671536559770118   0.852955134039576   0.502386980296919   1.0
H6   H   0.631639250031256   0.004685112347332   0.282283542859361   1.0
H7   H   0.490206056209438   0.735882850728665   0.101012618203512   1.0
H8   H   0.233719951311031   0.983906988394097   0.257996243205355   1.0
H9   H   0.204246658085943   0.926588096296811   0.622946407416421   1.0
H10   H   0.348036856692815   0.680017152696173   0.607894341449793   1.0
H11   H   0.088534285144085   0.750393339527655   0.476339041252636   1.0
H12   H   0.266693012103822   0.647739929042011   0.155455758782736   1.0
H13   H   0.504929912632981   0.578137995635522   0.292154562503413   1.0
I14   I   0.904657166716802   0.358426762743647   0.429688179529144   1.0
I15   I   0.869550069571332   0.761122929986435   0.928271032066377   1.0
I16   I   0.386036613110449   0.263698043355205   0.910280017232793   1.0
N17   N   0.405217607073283   0.696726023987203   0.215695076220236   1.0
Ge18   Ge   0.927887275806803   0.342609187144468   0.844826719942581   1.0




# HOIP entry ID:                    0353
# Khazana ID:                       2203
# Organic cation source:            C.C.Stoumpos et al., J. Am. Chem. Soc. 137, 6804 (2015)
# Label:                            Isopropylammonium Germanium Iodide
# Material class:                   Hybrid organic-inorganic perovskite ( MC_ino )
# Geometry class:                   Bulk crystalline materials ( GC_cry )
# Organic cation chemical formula:  (CH3)2CHNH3
# Number of atom types:             5
# Total number of atoms:            18
# Atom types:                       C H N  Ge I
# Number of each atom:              3 10 1  1 3
# Bandgap, HSE06 (eV):              2.6205
# Bandgap, GGA (eV):                1.8944
# Kpoint for VBM:                   0.5, 0.5, 0.1579
# Kpoint for CBM:                   0.4474, 0.5, 0.4474
# Dielectric constant, electronic:  4.1877
# Dielectric constant, ionic:       2.6856
# Dielectric constant, total:       6.8733
# Refractive index:                 2.0464
# Atomization energy (eV/atom):     -4.3171
# Relative energy1 (eV/atom):       0.1979
# Relative energy2 (eV/atom):       0.2796
# Volume of the unit cell (A^3):    283.6
# Density (g/cm^3):                 3.0064
# Tool:                             VASP
# Pseudopotential:                  PAW
# Note:                             ENCUT=400eV, k-spacing_relax=0.20/Angstrom, k-spacing_bandgap=0.15/Angstrom
# Created by:                       C.Kim, T.D.Huan, S.Krishnan, R. Ramprasad