data_1
_audit_creation_method   'Generated by vasp2cif'
_cell_length_a    6.78538685048
_cell_length_b    6.1027184345
_cell_length_c    7.04980188438
_cell_angle_alpha    95.0802039884
_cell_angle_beta    93.9594645145
_cell_angle_gamma    84.2738653304

_symmetry_space_group_name_H-M    'P 1'
loop_
_atom_site_label
_atom_site_type_symbol
_atom_site_fract_x
_atom_site_fract_y
_atom_site_fract_z
_atom_site_occupancy
C1   C   0.596987005953920   0.696175467160067   0.598870257273695   1.0
C2   C   0.449061631930476   0.531173228018993   0.626835114780071   1.0
C3   C   0.360690420939342   0.560751116061383   0.821273884873577   1.0
H4   H   0.479438211150146   0.543709301703508   0.933078024649461   1.0
H5   H   0.258236336708656   0.436765301541996   0.834758846756664   1.0
H6   H   0.281607142591398   0.725365088148266   0.844356088333399   1.0
H7   H   0.322540948889873   0.526636324198066   0.339154689256659   1.0
H8   H   0.515209259690415   0.361573999740720   0.596819020458149   1.0
H9   H   0.725274269709573   0.670334579643978   0.699477297076747   1.0
H10   H   0.649064484771024   0.674895859656736   0.454356767554593   1.0
H11   H   0.530805513035006   0.866521948060296   0.626091107072057   1.0
H12   H   0.171659279708272   0.449857890293593   0.490886007864461   1.0
H13   H   0.205046361206840   0.717962140557212   0.489201368205656   1.0
I14   I   0.967239191800751   0.107576402516081   0.577383853485500   1.0
I15   I   0.908588274179387   0.586297736956801   0.100196703572649   1.0
I16   I   0.441752537894871   0.087428601708915   0.164945150479895   1.0
N17   N   0.275892732325247   0.559343791717801   0.475686281301066   1.0
Ge18   Ge   0.856756397514793   0.056151222315542   0.171889537005740   1.0




# HOIP entry ID:                    0354
# Khazana ID:                       2204
# Organic cation source:            C.C.Stoumpos et al., J. Am. Chem. Soc. 137, 6804 (2015)
# Label:                            Isopropylammonium Germanium Iodide
# Material class:                   Hybrid organic-inorganic perovskite ( MC_ino )
# Geometry class:                   Bulk crystalline materials ( GC_cry )
# Organic cation chemical formula:  (CH3)2CHNH3
# Number of atom types:             5
# Total number of atoms:            18
# Atom types:                       C H N  Ge I
# Number of each atom:              3 10 1  1 3
# Bandgap, HSE06 (eV):              2.452
# Bandgap, GGA (eV):                1.7006
# Kpoint for VBM:                   0.5, 0.5, 0
# Kpoint for CBM:                   0.4737, 0.4737, 0.4737
# Dielectric constant, electronic:  4.2256
# Dielectric constant, ionic:       3.9017
# Dielectric constant, total:       8.1273
# Refractive index:                 2.0556
# Atomization energy (eV/atom):     -4.3139
# Relative energy1 (eV/atom):       0.201
# Relative energy2 (eV/atom):       0.2827
# Volume of the unit cell (A^3):    288.8
# Density (g/cm^3):                 2.9523
# Tool:                             VASP
# Pseudopotential:                  PAW
# Note:                             ENCUT=400eV, k-spacing_relax=0.20/Angstrom, k-spacing_bandgap=0.15/Angstrom
# Created by:                       C.Kim, T.D.Huan, S.Krishnan, R. Ramprasad