data_1
_audit_creation_method   'Generated by vasp2cif'
_cell_length_a    7.00865938122
_cell_length_b    6.13957987796
_cell_length_c    6.78754111838
_cell_angle_alpha    96.0090123669
_cell_angle_beta    86.3324787966
_cell_angle_gamma    95.8277149045

_symmetry_space_group_name_H-M    'P 1'
loop_
_atom_site_label
_atom_site_type_symbol
_atom_site_fract_x
_atom_site_fract_y
_atom_site_fract_z
_atom_site_occupancy
C1   C   0.553441061562786   0.749310149777372   0.309334783014649   1.0
C2   C   0.579944223432392   0.577115920797510   0.449172167542791   1.0
C3   C   0.777256565345240   0.598807930947629   0.535004554666145   1.0
H4   H   0.887639976472094   0.586137480294852   0.414523212872169   1.0
H5   H   0.789653374386539   0.469172435788167   0.630649032285469   1.0
H6   H   0.804952900543562   0.758899592322280   0.620798914098714   1.0
H7   H   0.292495746833623   0.569623185933885   0.580068320682322   1.0
H8   H   0.544928598744427   0.411136704026475   0.376995534953700   1.0
H9   H   0.652086124352024   0.727130873008569   0.179119736693835   1.0
H10   H   0.406928863794327   0.733030694245556   0.259243196371628   1.0
H11   H   0.585726417583572   0.916240784235463   0.381378556768823   1.0
H12   H   0.447110024422116   0.487752865266962   0.725242390153106   1.0
H13   H   0.447814358000777   0.756458819879235   0.699948842220316   1.0
I14   I   0.531091666671038   0.149911282963501   0.931967706500856   1.0
I15   I   0.053797632372742   0.624991342580586   0.990340490678363   1.0
I16   I   0.115951457894838   0.130209957154996   0.453341436041470   1.0
N17   N   0.431188700549896   0.600254802361881   0.625012720052695   1.0
Ge18   Ge   0.122052307038004   0.092885178415045   0.038258404402932   1.0




# HOIP entry ID:                    0355
# Khazana ID:                       2205
# Organic cation source:            C.C.Stoumpos et al., J. Am. Chem. Soc. 137, 6804 (2015)
# Label:                            Isopropylammonium Germanium Iodide
# Material class:                   Hybrid organic-inorganic perovskite ( MC_ino )
# Geometry class:                   Bulk crystalline materials ( GC_cry )
# Organic cation chemical formula:  (CH3)2CHNH3
# Number of atom types:             5
# Total number of atoms:            18
# Atom types:                       C H N  Ge I
# Number of each atom:              3 10 1  1 3
# Bandgap, HSE06 (eV):              2.4698
# Bandgap, GGA (eV):                1.7387
# Kpoint for VBM:                   0.5, 0.5, 0
# Kpoint for CBM:                   0.4474, 0.4474, 0.4474
# Dielectric constant, electronic:  4.2085
# Dielectric constant, ionic:       3.5394
# Dielectric constant, total:       7.7478
# Refractive index:                 2.0515
# Atomization energy (eV/atom):     -4.3139
# Relative energy1 (eV/atom):       0.2011
# Relative energy2 (eV/atom):       0.2828
# Volume of the unit cell (A^3):    288.54
# Density (g/cm^3):                 2.9549
# Tool:                             VASP
# Pseudopotential:                  PAW
# Note:                             ENCUT=400eV, k-spacing_relax=0.20/Angstrom, k-spacing_bandgap=0.15/Angstrom
# Created by:                       C.Kim, T.D.Huan, S.Krishnan, R. Ramprasad