data_1
_audit_creation_method   'Generated by vasp2cif'
_cell_length_a    8.07154892648
_cell_length_b    4.88140022781
_cell_length_c    7.9821264187
_cell_angle_alpha    93.6281039205
_cell_angle_beta    99.0676042517
_cell_angle_gamma    111.39088857

_symmetry_space_group_name_H-M    'P 1'
loop_
_atom_site_label
_atom_site_type_symbol
_atom_site_fract_x
_atom_site_fract_y
_atom_site_fract_z
_atom_site_occupancy
C1   C   0.680816453458633   0.914639992782277   0.609291669738496   1.0
C2   C   0.579434129338232   0.578633539404137   0.583231334606303   1.0
C3   C   0.484387148677669   0.469649026715977   0.731038177583002   1.0
H4   H   0.584876566164922   0.532983858762385   0.849930099049388   1.0
H5   H   0.412218927036392   0.228891622550478   0.714397849494183   1.0
H6   H   0.387147668260084   0.573176978804682   0.746177537428878   1.0
H7   H   0.490803628298863   0.540205435461189   0.310659388051974   1.0
H8   H   0.671611640369626   0.468678375455859   0.561221538119028   1.0
H9   H   0.743576445755998   0.994737532113959   0.501074706120441   1.0
H10   H   0.587855509407795   0.023389954611623   0.630742237010736   1.0
H11   H   0.788105837032127   0.976871757127171   0.723290455759404   1.0
H12   H   0.359800218340396   0.259604278654251   0.398560874639649   1.0
H13   H   0.342012029050842   0.586852797466605   0.423208100895920   1.0
I14   I   0.075023957055741   0.751239174188129   0.470265198836174   1.0
I15   I   0.123592341577364   0.315401186849421   0.999488285213538   1.0
I16   I   0.601956799567404   0.070781997363241   0.131066013956087   1.0
N17   N   0.434584865744590   0.485738918769222   0.417340646415354   1.0
Ge18   Ge   0.908775834863363   0.603573572919352   0.115975887081390   1.0




# HOIP entry ID:                    0356
# Khazana ID:                       2206
# Organic cation source:            C.C.Stoumpos et al., J. Am. Chem. Soc. 137, 6804 (2015)
# Label:                            Isopropylammonium Germanium Iodide
# Material class:                   Hybrid organic-inorganic perovskite ( MC_ino )
# Geometry class:                   Bulk crystalline materials ( GC_cry )
# Organic cation chemical formula:  (CH3)2CHNH3
# Number of atom types:             5
# Total number of atoms:            18
# Atom types:                       C H N  Ge I
# Number of each atom:              3 10 1  1 3
# Bandgap, HSE06 (eV):              3.2689
# Bandgap, GGA (eV):                2.4515
# Kpoint for VBM:                   -0.4, 0.4444, 0
# Kpoint for CBM:                   0.5, -0.0556, 0.3
# Dielectric constant, electronic:  3.8569
# Dielectric constant, ionic:       3.3171
# Dielectric constant, total:       7.174
# Refractive index:                 1.9639
# Atomization energy (eV/atom):     -4.3105
# Relative energy1 (eV/atom):       0.2045
# Relative energy2 (eV/atom):       0.2862
# Volume of the unit cell (A^3):    286.67
# Density (g/cm^3):                 2.9742
# Tool:                             VASP
# Pseudopotential:                  PAW
# Note:                             ENCUT=400eV, k-spacing_relax=0.20/Angstrom, k-spacing_bandgap=0.15/Angstrom
# Created by:                       C.Kim, T.D.Huan, S.Krishnan, R. Ramprasad