data_1
_audit_creation_method   'Generated by vasp2cif'
_cell_length_a    8.47673331392
_cell_length_b    4.79009051369
_cell_length_c    7.84525766774
_cell_angle_alpha    109.212015648
_cell_angle_beta    79.6306935021
_cell_angle_gamma    103.73910477

_symmetry_space_group_name_H-M    'P 1'
loop_
_atom_site_label
_atom_site_type_symbol
_atom_site_fract_x
_atom_site_fract_y
_atom_site_fract_z
_atom_site_occupancy
C1   C   0.346093211242760   0.352622491610745   0.672589120829272   1.0
C2   C   0.403334959764628   0.058592743024640   0.561403948034503   1.0
C3   C   0.278051985504504   0.842470499792086   0.437709039870384   1.0
H4   H   0.163848817230203   0.786662972605342   0.519898339621491   1.0
H5   H   0.319277705906636   0.633806546901177   0.357557643690456   1.0
H6   H   0.251303436819796   0.946744011847827   0.343521959351996   1.0
H7   H   0.654782790085079   0.271033131115473   0.519032836252556   1.0
H8   H   0.434720339809758   0.954489539162836   0.652394509783996   1.0
H9   H   0.296797078844129   0.441550821537916   0.586081391127387   1.0
H10   H   0.248209078949870   0.303510025046613   0.776612356704028   1.0
H11   H   0.443532610926731   0.522598722812873   0.742335777834512   1.0
H12   H   0.608194663449936   0.927589643296635   0.372569510392310   1.0
H13   H   0.550703631015558   0.216272727784258   0.344871604214468   1.0
I14   I   0.561972556170971   0.385794314845278   0.064381544512422   1.0
I15   I   0.003154201571590   0.153846348338881   0.155304402674666   1.0
I16   I   0.826675917779184   0.832220350168726   0.634204308988423   1.0
N17   N   0.564858748250451   0.123384340021943   0.442662669909509   1.0
Ge18   Ge   0.893848266678241   0.404330770086929   0.922799036207572   1.0




# HOIP entry ID:                    0357
# Khazana ID:                       2207
# Organic cation source:            C.C.Stoumpos et al., J. Am. Chem. Soc. 137, 6804 (2015)
# Label:                            Isopropylammonium Germanium Iodide
# Material class:                   Hybrid organic-inorganic perovskite ( MC_ino )
# Geometry class:                   Bulk crystalline materials ( GC_cry )
# Organic cation chemical formula:  (CH3)2CHNH3
# Number of atom types:             5
# Total number of atoms:            18
# Atom types:                       C H N  Ge I
# Number of each atom:              3 10 1  1 3
# Bandgap, HSE06 (eV):              3.3882
# Bandgap, GGA (eV):                2.5652
# Kpoint for VBM:                   0.125, -0.2222, 0.0833
# Kpoint for CBM:                   -0.125, 0, 0.4167
# Dielectric constant, electronic:  3.8625
# Dielectric constant, ionic:       3.6947
# Dielectric constant, total:       7.5572
# Refractive index:                 1.9653
# Atomization energy (eV/atom):     -4.3075
# Relative energy1 (eV/atom):       0.2075
# Relative energy2 (eV/atom):       0.2892
# Volume of the unit cell (A^3):    290.4
# Density (g/cm^3):                 2.936
# Tool:                             VASP
# Pseudopotential:                  PAW
# Note:                             ENCUT=400eV, k-spacing_relax=0.20/Angstrom, k-spacing_bandgap=0.15/Angstrom
# Created by:                       C.Kim, T.D.Huan, S.Krishnan, R. Ramprasad