data_1
_audit_creation_method   'Generated by vasp2cif'
_cell_length_a    9.08827598795
_cell_length_b    4.87793704967
_cell_length_c    8.07246164634
_cell_angle_alpha    68.6362043396
_cell_angle_beta    70.5215845151
_cell_angle_gamma    61.2478469306

_symmetry_space_group_name_H-M    'P 1'
loop_
_atom_site_label
_atom_site_type_symbol
_atom_site_fract_x
_atom_site_fract_y
_atom_site_fract_z
_atom_site_occupancy
C1   C   0.625102114412165   0.303765740942296   0.302661706450898   1.0
C2   C   0.598995204158200   0.993835660289797   0.404576157577800   1.0
C3   C   0.746907589750521   0.737477132557387   0.499572743038612   1.0
H4   H   0.865690467757467   0.682344713710556   0.399079402993422   1.0
H5   H   0.730476430674905   0.513106824330656   0.571718145881555   1.0
H6   H   0.761855718902510   0.826206320113684   0.596830850577803   1.0
H7   H   0.326383198482112   0.226006103647364   0.493153050615803   1.0
H8   H   0.576739150127601   0.905264016567216   0.312809410536190   1.0
H9   H   0.647544884301816   0.390840221221836   0.395053505995833   1.0
H10   H   0.738516028343625   0.251637345216750   0.194874306639555   1.0
H11   H   0.516522156353417   0.492328759624101   0.240598972955226   1.0
H12   H   0.415361451839693   0.859371896063912   0.625473563906681   1.0
H13   H   0.438773853645664   0.165326284578903   0.640890384281107   1.0
I14   I   0.486396376912801   0.280296674950726   0.908542025117079   1.0
I15   I   0.015145921059343   0.316608602363921   0.859794496927869   1.0
I16   I   0.147115613562256   0.939782042152203   0.381162041704272   1.0
N17   N   0.433288927543373   0.067268570883883   0.549431067828671   1.0
Ge18   Ge   0.132084912172587   0.487853090784832   0.074548166971645   1.0




# HOIP entry ID:                    0358
# Khazana ID:                       2208
# Organic cation source:            C.C.Stoumpos et al., J. Am. Chem. Soc. 137, 6804 (2015)
# Label:                            Isopropylammonium Germanium Iodide
# Material class:                   Hybrid organic-inorganic perovskite ( MC_ino )
# Geometry class:                   Bulk crystalline materials ( GC_cry )
# Organic cation chemical formula:  (CH3)2CHNH3
# Number of atom types:             5
# Total number of atoms:            18
# Atom types:                       C H N  Ge I
# Number of each atom:              3 10 1  1 3
# Bandgap, HSE06 (eV):              3.2536
# Bandgap, GGA (eV):                2.4439
# Kpoint for VBM:                   0.5, 0.5, 0.5
# Kpoint for CBM:                   0.25, 0, 0.5
# Dielectric constant, electronic:  3.8588
# Dielectric constant, ionic:       3.1511
# Dielectric constant, total:       7.0099
# Refractive index:                 1.9644
# Atomization energy (eV/atom):     -4.3105
# Relative energy1 (eV/atom):       0.2045
# Relative energy2 (eV/atom):       0.2862
# Volume of the unit cell (A^3):    286.65
# Density (g/cm^3):                 2.9744
# Tool:                             VASP
# Pseudopotential:                  PAW
# Note:                             ENCUT=400eV, k-spacing_relax=0.20/Angstrom, k-spacing_bandgap=0.15/Angstrom
# Created by:                       C.Kim, T.D.Huan, S.Krishnan, R. Ramprasad