data_1
_audit_creation_method   'Generated by vasp2cif'
_cell_length_a    7.96031337467
_cell_length_b    4.77295980831
_cell_length_c    8.38011368747
_cell_angle_alpha    105.127911746
_cell_angle_beta    91.0440801691
_cell_angle_gamma    108.620900182

_symmetry_space_group_name_H-M    'P 1'
loop_
_atom_site_label
_atom_site_type_symbol
_atom_site_fract_x
_atom_site_fract_y
_atom_site_fract_z
_atom_site_occupancy
C1   C   0.345357995996139   0.635235740298967   0.321155294126164   1.0
C2   C   0.452504840994031   0.463169928354155   0.384747366503937   1.0
C3   C   0.576083756215496   0.368657775567165   0.260527750441618   1.0
H4   H   0.497483302191455   0.220924908302450   0.143159789197256   1.0
H5   H   0.652287839368007   0.245618134882932   0.305329561781598   1.0
H6   H   0.670671406494165   0.571137392593791   0.234161399235497   1.0
H7   H   0.493230191670747   0.750925488579050   0.637930576372092   1.0
H8   H   0.361715367090731   0.265802055135438   0.417886582180550   1.0
H9   H   0.432210521797593   0.811205109002373   0.270271143939105   1.0
H10   H   0.244826768321431   0.469563451464531   0.220586992579641   1.0
H11   H   0.275446730163836   0.739151239818526   0.417692033008031   1.0
H12   H   0.630465306796246   0.543508778588077   0.599337971217238   1.0
H13   H   0.668768236856742   0.854418263519449   0.533720547728088   1.0
I14   I   0.944962426305104   0.331450690859484   0.546043452479942   1.0
I15   I   0.846414242340771   0.960245688526079   0.986975928863892   1.0
I16   I   0.357930997370346   0.153992324490623   0.809394790696274   1.0
N17   N   0.567628482712941   0.665298735929554   0.549686273760848   1.0
Ge18   Ge   0.083551587314218   0.621614294087344   0.881482545888019   1.0




# HOIP entry ID:                    0359
# Khazana ID:                       2209
# Organic cation source:            C.C.Stoumpos et al., J. Am. Chem. Soc. 137, 6804 (2015)
# Label:                            Isopropylammonium Germanium Iodide
# Material class:                   Hybrid organic-inorganic perovskite ( MC_ino )
# Geometry class:                   Bulk crystalline materials ( GC_cry )
# Organic cation chemical formula:  (CH3)2CHNH3
# Number of atom types:             5
# Total number of atoms:            18
# Atom types:                       C H N  Ge I
# Number of each atom:              3 10 1  1 3
# Bandgap, HSE06 (eV):              3.3473
# Bandgap, GGA (eV):                2.5323
# Kpoint for VBM:                   0.1, -0.2778, 0.1
# Kpoint for CBM:                   0.4, 0, 0.2
# Dielectric constant, electronic:  3.8864
# Dielectric constant, ionic:       3.8689
# Dielectric constant, total:       7.7553
# Refractive index:                 1.9714
# Atomization energy (eV/atom):     -4.307
# Relative energy1 (eV/atom):       0.208
# Relative energy2 (eV/atom):       0.2897
# Volume of the unit cell (A^3):    289.47
# Density (g/cm^3):                 2.9454
# Tool:                             VASP
# Pseudopotential:                  PAW
# Note:                             ENCUT=400eV, k-spacing_relax=0.20/Angstrom, k-spacing_bandgap=0.15/Angstrom
# Created by:                       C.Kim, T.D.Huan, S.Krishnan, R. Ramprasad