data_1
_audit_creation_method   'Generated by vasp2cif'
_cell_length_a    8.00847027506
_cell_length_b    4.53500123154
_cell_length_c    8.21499226739
_cell_angle_alpha    76.5784866446
_cell_angle_beta    77.8920404967
_cell_angle_gamma    90.3682225942

_symmetry_space_group_name_H-M    'P 1'
loop_
_atom_site_label
_atom_site_type_symbol
_atom_site_fract_x
_atom_site_fract_y
_atom_site_fract_z
_atom_site_occupancy
C1   C   0.577204235010285   0.015627678812429   0.303913732336518   1.0
C2   C   0.546757393557378   0.989425575055762   0.496655383942589   1.0
C3   C   0.681335504315655   0.172684295613813   0.544266127988848   1.0
H4   H   0.805282285418528   0.077170777110403   0.511522407110881   1.0
H5   H   0.654778840057539   0.164620652996199   0.681236625352042   1.0
H6   H   0.692178443825746   0.409551324470776   0.471427815877107   1.0
H7   H   0.348454637016005   0.096567674760770   0.690699228986418   1.0
H8   H   0.541889412047979   0.752858490264373   0.567494242195643   1.0
H9   H   0.478179333670163   0.892003720746146   0.268357820972156   1.0
H10   H   0.582850464279495   0.253690905614562   0.233287609436118   1.0
H11   H   0.700329327066669   0.923356753549207   0.261630781468582   1.0
H12   H   0.344375336667511   0.304896732344211   0.494642009204938   1.0
H13   H   0.272739447804099   0.946360069448673   0.550086982960231   1.0
I14   I   0.392769366295660   0.439105939001820   0.932621478180820   1.0
I15   I   0.930417551509848   0.888762230110480   0.895468010800499   1.0
I16   I   0.092537215939160   0.667066348358823   0.389197140108848   1.0
N17   N   0.367238808800728   0.091854409917914   0.562738716853438   1.0
Ge18   Ge   0.051342396717594   0.355416421823712   0.102183886224289   1.0




# HOIP entry ID:                    0360
# Khazana ID:                       2210
# Organic cation source:            C.C.Stoumpos et al., J. Am. Chem. Soc. 137, 6804 (2015)
# Label:                            Isopropylammonium Germanium Iodide
# Material class:                   Hybrid organic-inorganic perovskite ( MC_ino )
# Geometry class:                   Bulk crystalline materials ( GC_cry )
# Organic cation chemical formula:  (CH3)2CHNH3
# Number of atom types:             5
# Total number of atoms:            18
# Atom types:                       C H N  Ge I
# Number of each atom:              3 10 1  1 3
# Bandgap, HSE06 (eV):              3.2745
# Bandgap, GGA (eV):                2.4853
# Kpoint for VBM:                   0.2, 0.2222, 0.2
# Kpoint for CBM:                   0, 0, 0.4
# Dielectric constant, electronic:  4.0375
# Dielectric constant, ionic:       6.1389
# Dielectric constant, total:       10.1764
# Refractive index:                 2.0094
# Atomization energy (eV/atom):     -4.3078
# Relative energy1 (eV/atom):       0.2071
# Relative energy2 (eV/atom):       0.2888
# Volume of the unit cell (A^3):    283.27
# Density (g/cm^3):                 3.0099
# Tool:                             VASP
# Pseudopotential:                  PAW
# Note:                             ENCUT=400eV, k-spacing_relax=0.20/Angstrom, k-spacing_bandgap=0.15/Angstrom
# Created by:                       C.Kim, T.D.Huan, S.Krishnan, R. Ramprasad