data_1
_audit_creation_method   'Generated by vasp2cif'
_cell_length_a    7.25689731083
_cell_length_b    4.5336199749
_cell_length_c    8.69997458276
_cell_angle_alpha    88.7154433182
_cell_angle_beta    83.7669129892
_cell_angle_gamma    98.4671042157

_symmetry_space_group_name_H-M    'P 1'
loop_
_atom_site_label
_atom_site_type_symbol
_atom_site_fract_x
_atom_site_fract_y
_atom_site_fract_z
_atom_site_occupancy
C1   C   0.464249320975395   0.630844867264456   0.662549148776017   1.0
C2   C   0.440189503824645   0.457638781731411   0.516181126659905   1.0
C3   C   0.332441025377686   0.606828508709924   0.403198337385141   1.0
H4   H   0.198029909396991   0.640974117254568   0.464353222824572   1.0
H5   H   0.305230708646179   0.472373885288742   0.303442794562567   1.0
H6   H   0.408678828879466   0.825060674186195   0.360154833933255   1.0
H7   H   0.621871282454598   0.302161294861429   0.333933733734673   1.0
H8   H   0.371065731426843   0.229769684195700   0.546316290696810   1.0
H9   H   0.551611338650562   0.532400982545661   0.737630014397816   1.0
H10   H   0.527292900783893   0.863013303799509   0.635318364139949   1.0
H11   H   0.326297411541690   0.630398153469302   0.727373709809583   1.0
H12   H   0.715706904168584   0.624111733773033   0.397698800306590   1.0
H13   H   0.712928675119082   0.313129561668971   0.504646258562365   1.0
I14   I   0.529478369129457   0.211298609045118   0.033327369832457   1.0
I15   I   0.987222602640885   0.970558559639466   0.207460012899696   1.0
I16   I   0.959917768684250   0.018173039295297   0.692762442967395   1.0
N17   N   0.635374566502793   0.420517238692046   0.433959842217792   1.0
Ge18   Ge   0.914493151796952   0.380877004578972   0.964183696293289   1.0




# HOIP entry ID:                    0361
# Khazana ID:                       2211
# Organic cation source:            C.C.Stoumpos et al., J. Am. Chem. Soc. 137, 6804 (2015)
# Label:                            Isopropylammonium Germanium Iodide
# Material class:                   Hybrid organic-inorganic perovskite ( MC_ino )
# Geometry class:                   Bulk crystalline materials ( GC_cry )
# Organic cation chemical formula:  (CH3)2CHNH3
# Number of atom types:             5
# Total number of atoms:            18
# Atom types:                       C H N  Ge I
# Number of each atom:              3 10 1  1 3
# Bandgap, HSE06 (eV):              3.3973
# Bandgap, GGA (eV):                2.5242
# Kpoint for VBM:                   -0.1, 0.0556, 0.5
# Kpoint for CBM:                   0.2105, 0.2105, 0
# Dielectric constant, electronic:  4.0123
# Dielectric constant, ionic:       4.9499
# Dielectric constant, total:       8.9622
# Refractive index:                 2.0031
# Atomization energy (eV/atom):     -4.3042
# Relative energy1 (eV/atom):       0.2107
# Relative energy2 (eV/atom):       0.2924
# Volume of the unit cell (A^3):    281.22
# Density (g/cm^3):                 3.0318
# Tool:                             VASP
# Pseudopotential:                  PAW
# Note:                             ENCUT=400eV, k-spacing_relax=0.20/Angstrom, k-spacing_bandgap=0.15/Angstrom
# Created by:                       C.Kim, T.D.Huan, S.Krishnan, R. Ramprasad