data_1
_audit_creation_method   'Generated by vasp2cif'
_cell_length_a    6.56283044321
_cell_length_b    6.45221272942
_cell_length_c    6.42350701199
_cell_angle_alpha    81.9348379284
_cell_angle_beta    100.410561382
_cell_angle_gamma    97.1530059221

_symmetry_space_group_name_H-M    'P 1'
loop_
_atom_site_label
_atom_site_type_symbol
_atom_site_fract_x
_atom_site_fract_y
_atom_site_fract_z
_atom_site_occupancy
I1   I   0.464057519997148   0.913563443502058   0.998279868702225   1.0
I2   I   0.990907026642995   0.940073690979658   0.473518860346137   1.0
I3   I   0.948535793366557   0.435207070936654   0.959092030630777   1.0
H4   H   0.508767105455749   0.660231615477870   0.380461592324059   1.0
H5   H   0.718140820631592   0.394448169841334   0.327547673119386   1.0
H6   H   0.650712490044532   0.566070950439113   0.608271074987389   1.0
H7   H   0.199887947450413   0.438606959960330   0.470665211935798   1.0
H8   H   0.355356628601300   0.341632530596038   0.715499773961788   1.0
H9   H   0.307028046828823   0.612862917132705   0.665951656423073   1.0
H10   H   0.444809965390394   0.321121898813966   0.255709474451965   1.0
H11   H   0.583265276953974   0.211043835456079   0.505147119623295   1.0
C12   C   0.330751849556870   0.476690733233459   0.594685218044649   1.0
C13   C   0.571649773328262   0.349593201428400   0.386840042237886   1.0
Ge14   Ge   0.904636058183858   0.986650353502045   0.028801068618556   1.0
N15   N   0.524397597670572   0.528690415507945   0.493022266783117   1.0




# HOIP entry ID:                    0362
# Khazana ID:                       2212
# Organic cation source:            B.Saparov et al., Chem. Rev. 116, 4558 (2016)
# Label:                            Dimethylammonium Germanium Iodide
# Material class:                   Hybrid organic-inorganic perovskite ( MC_ino )
# Geometry class:                   Bulk crystalline materials ( GC_cry )
# Organic cation chemical formula:  (CH3)2NH2
# Number of atom types:             5
# Total number of atoms:            15
# Atom types:                       C H N  Ge I
# Number of each atom:              2 8 1  1 3
# Bandgap, HSE06 (eV):              2.5481
# Bandgap, GGA (eV):                1.8904
# Kpoint for VBM:                   0.4211, 0.5, 0.4211
# Kpoint for CBM:                   0.4474, 0.5, 0.4474
# Dielectric constant, electronic:  4.4347
# Dielectric constant, ionic:       3.4998
# Dielectric constant, total:       7.9345
# Refractive index:                 2.1059
# Atomization energy (eV/atom):     -4.1435
# Relative energy1 (eV/atom):       0.295
# Relative energy2 (eV/atom):       0.393
# Volume of the unit cell (A^3):    263.5
# Density (g/cm^3):                 3.1473
# Tool:                             VASP
# Pseudopotential:                  PAW
# Note:                             ENCUT=400eV, k-spacing_relax=0.20/Angstrom, k-spacing_bandgap=0.15/Angstrom
# Created by:                       C.Kim, T.D.Huan, S.Krishnan, R. Ramprasad