data_1
_audit_creation_method   'Generated by vasp2cif'
_cell_length_a    6.49205070099
_cell_length_b    6.5209834677
_cell_length_c    6.45325411032
_cell_angle_alpha    82.1403221569
_cell_angle_beta    100.256437238
_cell_angle_gamma    98.6467313515

_symmetry_space_group_name_H-M    'P 1'
loop_
_atom_site_label
_atom_site_type_symbol
_atom_site_fract_x
_atom_site_fract_y
_atom_site_fract_z
_atom_site_occupancy
I1   I   0.445103013412727   0.947885823026105   0.960641490388745   1.0
I2   I   0.936442045152916   0.945553883935574   0.479013761020894   1.0
I3   I   0.950703088866980   0.452312077375602   0.977944213491199   1.0
H4   H   0.402497996870416   0.623623107216574   0.293128682731172   1.0
H5   H   0.658880244298395   0.392089598292706   0.288082172098697   1.0
H6   H   0.596730139261908   0.646649179757588   0.494045036842486   1.0
H7   H   0.172256791292462   0.402886896793746   0.517475525276566   1.0
H8   H   0.383477973434367   0.428184384357493   0.736275426528643   1.0
H9   H   0.263769362603334   0.652917208340526   0.609127935922437   1.0
H10   H   0.405223473185117   0.250330566817567   0.317696597454606   1.0
H11   H   0.608984416787997   0.270359881031325   0.543727619455197   1.0
C12   C   0.308621234063622   0.504510849899660   0.586928211190838   1.0
C13   C   0.541076141138340   0.348865531959085   0.392634283297475   1.0
Ge14   Ge   0.889848372800046   0.010000395438176   0.030573288074947   1.0
N15   N   0.466778997369005   0.545620423347735   0.435236649821846   1.0




# HOIP entry ID:                    0363
# Khazana ID:                       2213
# Organic cation source:            B.Saparov et al., Chem. Rev. 116, 4558 (2016)
# Label:                            Dimethylammonium Germanium Iodide
# Material class:                   Hybrid organic-inorganic perovskite ( MC_ino )
# Geometry class:                   Bulk crystalline materials ( GC_cry )
# Organic cation chemical formula:  (CH3)2NH2
# Number of atom types:             5
# Total number of atoms:            15
# Atom types:                       C H N  Ge I
# Number of each atom:              2 8 1  1 3
# Bandgap, HSE06 (eV):              2.556
# Bandgap, GGA (eV):                1.8975
# Kpoint for VBM:                   0.4211, 0.5, 0.4211
# Kpoint for CBM:                   0.4474, 0.5, 0.4474
# Dielectric constant, electronic:  4.4403
# Dielectric constant, ionic:       2.9797
# Dielectric constant, total:       7.42
# Refractive index:                 2.1072
# Atomization energy (eV/atom):     -4.1427
# Relative energy1 (eV/atom):       0.2958
# Relative energy2 (eV/atom):       0.3938
# Volume of the unit cell (A^3):    264.07
# Density (g/cm^3):                 3.1405
# Tool:                             VASP
# Pseudopotential:                  PAW
# Note:                             ENCUT=400eV, k-spacing_relax=0.20/Angstrom, k-spacing_bandgap=0.15/Angstrom
# Created by:                       C.Kim, T.D.Huan, S.Krishnan, R. Ramprasad