data_1
_audit_creation_method   'Generated by vasp2cif'
_cell_length_a    6.52802452135
_cell_length_b    6.48986719712
_cell_length_c    6.43439734786
_cell_angle_alpha    80.5785591646
_cell_angle_beta    99.8950301661
_cell_angle_gamma    97.2805406667

_symmetry_space_group_name_H-M    'P 1'
loop_
_atom_site_label
_atom_site_type_symbol
_atom_site_fract_x
_atom_site_fract_y
_atom_site_fract_z
_atom_site_occupancy
I1   I   0.456823770448125   0.925337396132477   0.001526469358666   1.0
I2   I   0.980694349430721   0.956693298093228   0.478595657792489   1.0
I3   I   0.939956169896497   0.446348356584593   0.953875824637223   1.0
H4   H   0.527905565531476   0.656126660487978   0.373632358009523   1.0
H5   H   0.669572375315163   0.356392286724159   0.295105578762438   1.0
H6   H   0.660203719909056   0.531048551356413   0.593141224572300   1.0
H7   H   0.196934124795156   0.490799971875390   0.476651654809032   1.0
H8   H   0.341965675829996   0.359226568806164   0.712161011031675   1.0
H9   H   0.346421114216888   0.639453046089258   0.672801593456953   1.0
H10   H   0.389840551704573   0.333562207141398   0.242377010407843   1.0
H11   H   0.520987901534276   0.191954490971192   0.480316684416664   1.0
C12   C   0.337383896896434   0.501068824444573   0.595209727723280   1.0
C13   C   0.526948053628168   0.335395431317814   0.365685055300752   1.0
Ge14   Ge   0.899929252177337   0.998881106617162   0.034013747455234   1.0
N15   N   0.525233638496026   0.519212317397383   0.482278264722318   1.0




# HOIP entry ID:                    0364
# Khazana ID:                       2214
# Organic cation source:            B.Saparov et al., Chem. Rev. 116, 4558 (2016)
# Label:                            Dimethylammonium Germanium Iodide
# Material class:                   Hybrid organic-inorganic perovskite ( MC_ino )
# Geometry class:                   Bulk crystalline materials ( GC_cry )
# Organic cation chemical formula:  (CH3)2NH2
# Number of atom types:             5
# Total number of atoms:            15
# Atom types:                       C H N  Ge I
# Number of each atom:              2 8 1  1 3
# Bandgap, HSE06 (eV):              2.5746
# Bandgap, GGA (eV):                1.9249
# Kpoint for VBM:                   0.4211, 0.5, 0.4211
# Kpoint for CBM:                   0.4474, 0.5, 0.4474
# Dielectric constant, electronic:  4.419
# Dielectric constant, ionic:       2.7659
# Dielectric constant, total:       7.1849
# Refractive index:                 2.1021
# Atomization energy (eV/atom):     -4.1442
# Relative energy1 (eV/atom):       0.2943
# Relative energy2 (eV/atom):       0.3924
# Volume of the unit cell (A^3):    263.56
# Density (g/cm^3):                 3.1466
# Tool:                             VASP
# Pseudopotential:                  PAW
# Note:                             ENCUT=400eV, k-spacing_relax=0.20/Angstrom, k-spacing_bandgap=0.15/Angstrom
# Created by:                       C.Kim, T.D.Huan, S.Krishnan, R. Ramprasad