data_1
_audit_creation_method   'Generated by vasp2cif'
_cell_length_a    6.57161827748
_cell_length_b    6.43263553456
_cell_length_c    6.36952859853
_cell_angle_alpha    88.2723719426
_cell_angle_beta    84.9347007567
_cell_angle_gamma    79.0850677846

_symmetry_space_group_name_H-M    'P 1'
loop_
_atom_site_label
_atom_site_type_symbol
_atom_site_fract_x
_atom_site_fract_y
_atom_site_fract_z
_atom_site_occupancy
I1   I   0.068375403730023   0.962279909167575   0.519672985165043   1.0
I2   I   0.568804867017102   0.019095616642812   0.008960992449250   1.0
I3   I   0.990885754000242   0.436844213991561   0.011209305206054   1.0
H4   H   0.413254371586192   0.670454424781925   0.346467558800334   1.0
H5   H   0.289841231537098   0.341338463690357   0.357458579878561   1.0
H6   H   0.602815263626327   0.479544410297643   0.248661516801778   1.0
H7   H   0.562292185534109   0.652684475814239   0.680747958641374   1.0
H8   H   0.766822241915757   0.447468361979858   0.576042243355104   1.0
H9   H   0.739297639310347   0.709912865611239   0.466822946359320   1.0
H10   H   0.298258143249412   0.437215255394238   0.616841419727208   1.0
H11   H   0.498867472020827   0.228368355800633   0.512645908041553   1.0
C12   C   0.657280698065751   0.590654816355484   0.539398103151468   1.0
C13   C   0.390202378971549   0.371908344557815   0.475064066300902   1.0
Ge14   Ge   0.002701998393185   0.991572599750148   0.968834827115163   1.0
N15   N   0.514570351042092   0.534177886164430   0.385711589006924   1.0




# HOIP entry ID:                    0365
# Khazana ID:                       2215
# Organic cation source:            B.Saparov et al., Chem. Rev. 116, 4558 (2016)
# Label:                            Dimethylammonium Germanium Iodide
# Material class:                   Hybrid organic-inorganic perovskite ( MC_ino )
# Geometry class:                   Bulk crystalline materials ( GC_cry )
# Organic cation chemical formula:  (CH3)2NH2
# Number of atom types:             5
# Total number of atoms:            15
# Atom types:                       C H N  Ge I
# Number of each atom:              2 8 1  1 3
# Bandgap, HSE06 (eV):              2.2182
# Bandgap, GGA (eV):                1.483
# Kpoint for VBM:                   0.3421, 0.3421, 0.3421
# Kpoint for CBM:                   0.5, 0.5, 0.5
# Dielectric constant, electronic:  4.5957
# Dielectric constant, ionic:       4.8727
# Dielectric constant, total:       9.4684
# Refractive index:                 2.1438
# Atomization energy (eV/atom):     -4.1391
# Relative energy1 (eV/atom):       0.2994
# Relative energy2 (eV/atom):       0.3975
# Volume of the unit cell (A^3):    263.33
# Density (g/cm^3):                 3.1494
# Tool:                             VASP
# Pseudopotential:                  PAW
# Note:                             ENCUT=400eV, k-spacing_relax=0.20/Angstrom, k-spacing_bandgap=0.15/Angstrom
# Created by:                       C.Kim, T.D.Huan, S.Krishnan, R. Ramprasad