data_1
_audit_creation_method   'Generated by vasp2cif'
_cell_length_a    6.43209494227
_cell_length_b    4.49025576678
_cell_length_c    9.19993680056
_cell_angle_alpha    89.6287386377
_cell_angle_beta    80.8420767534
_cell_angle_gamma    88.1329807939

_symmetry_space_group_name_H-M    'P 1'
loop_
_atom_site_label
_atom_site_type_symbol
_atom_site_fract_x
_atom_site_fract_y
_atom_site_fract_z
_atom_site_occupancy
I1   I   0.995473243280827   0.101920607100169   0.803836369434315   1.0
I2   I   0.471222991506672   0.626620210515917   0.044881400262689   1.0
I3   I   0.895138976723757   0.101023199527276   0.295452826677788   1.0
H4   H   0.225684569956151   0.369634159080867   0.525630428888697   1.0
H5   H   0.595982836029293   0.437450531583451   0.420960967103355   1.0
H6   H   0.562553932800355   0.799403315849531   0.419435834839085   1.0
H7   H   0.505674976404059   0.417136190396405   0.688602718197423   1.0
H8   H   0.724002149656627   0.648686272680045   0.627011335034382   1.0
H9   H   0.467237521462046   0.811826594641062   0.689199623060240   1.0
H10   H   0.259492319515616   0.562481985919916   0.352481668960536   1.0
H11   H   0.186532292030528   0.764076472613212   0.521390890661806   1.0
C12   C   0.555063416455617   0.623547119688737   0.632235139024665   1.0
C13   C   0.276432921133676   0.573930446050326   0.467973092671372   1.0
Ge14   Ge   0.902589397798231   0.592248168400296   0.033763272757973   1.0
N15   N   0.506328455246582   0.611214725952621   0.476894432425666   1.0




# HOIP entry ID:                    0366
# Khazana ID:                       2216
# Organic cation source:            B.Saparov et al., Chem. Rev. 116, 4558 (2016)
# Label:                            Dimethylammonium Germanium Iodide
# Material class:                   Hybrid organic-inorganic perovskite ( MC_ino )
# Geometry class:                   Bulk crystalline materials ( GC_cry )
# Organic cation chemical formula:  (CH3)2NH2
# Number of atom types:             5
# Total number of atoms:            15
# Atom types:                       C H N  Ge I
# Number of each atom:              2 8 1  1 3
# Bandgap, HSE06 (eV):              3.1367
# Bandgap, GGA (eV):                2.2338
# Kpoint for VBM:                   -0.0833, 0, 0.375
# Kpoint for CBM:                   -0.4167, 0, 0.375
# Dielectric constant, electronic:  4.3583
# Dielectric constant, ionic:       43.8022
# Dielectric constant, total:       48.1605
# Refractive index:                 2.0876
# Atomization energy (eV/atom):     -4.1305
# Relative energy1 (eV/atom):       0.308
# Relative energy2 (eV/atom):       0.406
# Volume of the unit cell (A^3):    262.18
# Density (g/cm^3):                 3.1632
# Tool:                             VASP
# Pseudopotential:                  PAW
# Note:                             ENCUT=400eV, k-spacing_relax=0.20/Angstrom, k-spacing_bandgap=0.15/Angstrom
# Created by:                       C.Kim, T.D.Huan, S.Krishnan, R. Ramprasad