data_1
_audit_creation_method   'Generated by vasp2cif'
_cell_length_a    6.56592719782
_cell_length_b    4.49238352175
_cell_length_c    8.88348784914
_cell_angle_alpha    91.5713143297
_cell_angle_beta    82.9855102093
_cell_angle_gamma    97.6548610353

_symmetry_space_group_name_H-M    'P 1'
loop_
_atom_site_label
_atom_site_type_symbol
_atom_site_fract_x
_atom_site_fract_y
_atom_site_fract_z
_atom_site_occupancy
I1   I   0.047888479367998   0.127786566475756   0.194693354504587   1.0
I2   I   0.547193567296695   0.719566795111966   0.941216274500931   1.0
I3   I   0.112900774278110   0.111354487594127   0.690182575297278   1.0
H4   H   0.701301601946149   0.305431593755017   0.446648045514458   1.0
H5   H   0.396853523356043   0.502605192661278   0.578214376670488   1.0
H6   H   0.530902015986257   0.834486537640394   0.596666343699283   1.0
H7   H   0.449846382939647   0.515351382096242   0.305990555068391   1.0
H8   H   0.334309529930408   0.832926384552863   0.383292239479637   1.0
H9   H   0.605655265592553   0.870687792409292   0.314451405493188   1.0
H10   H   0.730306397501202   0.434377674981789   0.637650085832817   1.0
H11   H   0.847983855293755   0.658420729345067   0.479063628565960   1.0
C12   C   0.474229417667352   0.724246417748788   0.370535806446796   1.0
C13   C   0.715380408384640   0.499319693110785   0.522809187959801   1.0
Ge14   Ge   0.118304191647233   0.606966101478470   0.956384361581854   1.0
N15   N   0.521704588811993   0.647872651038234   0.526251759384479   1.0




# HOIP entry ID:                    0367
# Khazana ID:                       2217
# Organic cation source:            B.Saparov et al., Chem. Rev. 116, 4558 (2016)
# Label:                            Dimethylammonium Germanium Iodide
# Material class:                   Hybrid organic-inorganic perovskite ( MC_ino )
# Geometry class:                   Bulk crystalline materials ( GC_cry )
# Organic cation chemical formula:  (CH3)2NH2
# Number of atom types:             5
# Total number of atoms:            15
# Atom types:                       C H N  Ge I
# Number of each atom:              2 8 1  1 3
# Bandgap, HSE06 (eV):              3.1862
# Bandgap, GGA (eV):                2.3156
# Kpoint for VBM:                   0.0833, 0, 0.375
# Kpoint for CBM:                   -0.4167, 0, 0.375
# Dielectric constant, electronic:  4.3842
# Dielectric constant, ionic:       40.8706
# Dielectric constant, total:       45.2548
# Refractive index:                 2.0938
# Atomization energy (eV/atom):     -4.1322
# Relative energy1 (eV/atom):       0.3063
# Relative energy2 (eV/atom):       0.4043
# Volume of the unit cell (A^3):    257.74
# Density (g/cm^3):                 3.2177
# Tool:                             VASP
# Pseudopotential:                  PAW
# Note:                             ENCUT=400eV, k-spacing_relax=0.20/Angstrom, k-spacing_bandgap=0.15/Angstrom
# Created by:                       C.Kim, T.D.Huan, S.Krishnan, R. Ramprasad