data_1
_audit_creation_method   'Generated by vasp2cif'
_cell_length_a    8.25931128394
_cell_length_b    4.602523242
_cell_length_c    7.55692191904
_cell_angle_alpha    106.297966539
_cell_angle_beta    96.5746159166
_cell_angle_gamma    100.873501778

_symmetry_space_group_name_H-M    'P 1'
loop_
_atom_site_label
_atom_site_type_symbol
_atom_site_fract_x
_atom_site_fract_y
_atom_site_fract_z
_atom_site_occupancy
I1   I   0.231252635543385   0.085117230275699   0.948073993405124   1.0
I2   I   0.939280466979696   0.386593179358201   0.450436366860202   1.0
I3   I   0.687250812153678   0.839143181989165   0.877688959545992   1.0
H4   H   0.417804298171980   0.589632737634616   0.322625938944384   1.0
H5   H   0.546984308095610   0.012559307640792   0.616249287955767   1.0
H6   H   0.600195180767791   0.249089122999123   0.494175447747018   1.0
H7   H   0.251919670921929   0.931928205439398   0.505719483630742   1.0
H8   H   0.346530677081290   0.337560119124987   0.604607952244258   1.0
H9   H   0.298252646348637   0.158110173975579   0.353927441965901   1.0
H10   H   0.640874131941509   0.733635025002606   0.348553150618116   1.0
H11   H   0.497549033563622   0.848340854737401   0.200653416258938   1.0
C12   C   0.338325137677096   0.128535664828583   0.488758562652457   1.0
C13   C   0.517725937956364   0.785229454343323   0.328490638052273   1.0
Ge14   Ge   0.968495137939563   0.529270395264881   0.845093236292527   1.0
N15   N   0.510119924857804   0.057775347385657   0.491986123826209   1.0




# HOIP entry ID:                    0368
# Khazana ID:                       2218
# Organic cation source:            B.Saparov et al., Chem. Rev. 116, 4558 (2016)
# Label:                            Dimethylammonium Germanium Iodide
# Material class:                   Hybrid organic-inorganic perovskite ( MC_ino )
# Geometry class:                   Bulk crystalline materials ( GC_cry )
# Organic cation chemical formula:  (CH3)2NH2
# Number of atom types:             5
# Total number of atoms:            15
# Atom types:                       C H N  Ge I
# Number of each atom:              2 8 1  1 3
# Bandgap, HSE06 (eV):              3.3362
# Bandgap, GGA (eV):                2.5229
# Kpoint for VBM:                   0.2, -0.2222, 0.0833
# Kpoint for CBM:                   0.4, 0, 0.4167
# Dielectric constant, electronic:  4.045
# Dielectric constant, ionic:       4.5841
# Dielectric constant, total:       8.6291
# Refractive index:                 2.0112
# Atomization energy (eV/atom):     -4.1303
# Relative energy1 (eV/atom):       0.3082
# Relative energy2 (eV/atom):       0.4062
# Volume of the unit cell (A^3):    266.47
# Density (g/cm^3):                 3.1122
# Tool:                             VASP
# Pseudopotential:                  PAW
# Note:                             ENCUT=400eV, k-spacing_relax=0.20/Angstrom, k-spacing_bandgap=0.15/Angstrom
# Created by:                       C.Kim, T.D.Huan, S.Krishnan, R. Ramprasad