data_1
_audit_creation_method   'Generated by vasp2cif'
_cell_length_a    6.77716133676
_cell_length_b    4.69303890915
_cell_length_c    8.28663286657
_cell_angle_alpha    78.1787545828
_cell_angle_beta    86.2155105115
_cell_angle_gamma    82.1793620471

_symmetry_space_group_name_H-M    'P 1'
loop_
_atom_site_label
_atom_site_type_symbol
_atom_site_fract_x
_atom_site_fract_y
_atom_site_fract_z
_atom_site_occupancy
I1   I   0.960109534913279   0.223485484317131   0.807390259435785   1.0
I2   I   0.476787027236732   0.824046745790170   0.051261416796983   1.0
I3   I   0.913292764443732   0.991417124532852   0.353285807239068   1.0
H4   H   0.331687511392360   0.135132344075693   0.545589106278342   1.0
H5   H   0.645303220537222   0.361364722477681   0.492578971712341   1.0
H6   H   0.519206165125631   0.667297917497145   0.397524690413434   1.0
H7   H   0.468723394001039   0.378330786271739   0.752109075995399   1.0
H8   H   0.567856957278288   0.714843550017655   0.674256152778376   1.0
H9   H   0.307372711292956   0.690319403252140   0.654980987888898   1.0
H10   H   0.406581142576336   0.238441257435362   0.330639093014092   1.0
H11   H   0.214277503271091   0.461666053194293   0.422569695488726   1.0
C12   C   0.458542301809807   0.575784725931548   0.655857326565524   1.0
C13   C   0.353089929514994   0.315144665333356   0.443113409074961   1.0
Ge14   Ge   0.895081739231152   0.720801151422833   0.059058962372056   1.0
N15   N   0.506311792930056   0.485975921883906   0.490896189064983   1.0




# HOIP entry ID:                    0369
# Khazana ID:                       2219
# Organic cation source:            B.Saparov et al., Chem. Rev. 116, 4558 (2016)
# Label:                            Dimethylammonium Germanium Iodide
# Material class:                   Hybrid organic-inorganic perovskite ( MC_ino )
# Geometry class:                   Bulk crystalline materials ( GC_cry )
# Organic cation chemical formula:  (CH3)2NH2
# Number of atom types:             5
# Total number of atoms:            15
# Atom types:                       C H N  Ge I
# Number of each atom:              2 8 1  1 3
# Bandgap, HSE06 (eV):              3.2144
# Bandgap, GGA (eV):                2.3946
# Kpoint for VBM:                   0.1667, 0.1667, 0.3
# Kpoint for CBM:                   0.5, 0.0556, 0.1
# Dielectric constant, electronic:  4.3295
# Dielectric constant, ionic:       4.8894
# Dielectric constant, total:       9.219
# Refractive index:                 2.0808
# Atomization energy (eV/atom):     -4.1353
# Relative energy1 (eV/atom):       0.3032
# Relative energy2 (eV/atom):       0.4013
# Volume of the unit cell (A^3):    255.37
# Density (g/cm^3):                 3.2475
# Tool:                             VASP
# Pseudopotential:                  PAW
# Note:                             ENCUT=400eV, k-spacing_relax=0.20/Angstrom, k-spacing_bandgap=0.15/Angstrom
# Created by:                       C.Kim, T.D.Huan, S.Krishnan, R. Ramprasad