data_1
_audit_creation_method   'Generated by vasp2cif'
_cell_length_a    6.49888292528
_cell_length_b    6.55084549231
_cell_length_c    6.53335421663
_cell_angle_alpha    90.8270531113
_cell_angle_beta    99.8636787356
_cell_angle_gamma    80.9164856874

_symmetry_space_group_name_H-M    'P 1'
loop_
_atom_site_label
_atom_site_type_symbol
_atom_site_fract_x
_atom_site_fract_y
_atom_site_fract_z
_atom_site_occupancy
C1   C   0.371221702737650   0.408608491724394   0.594150372012031   1.0
C2   C   0.514505303138407   0.516275635840238   0.492069223834484   1.0
H3   H   0.684016790516274   0.501771246226937   0.251044626471327   1.0
H4   H   0.670827616044953   0.768323013115975   0.512713163168634   1.0
H5   H   0.359792443705480   0.255691192802878   0.529380937756137   1.0
H6   H   0.212871388856556   0.501021810106081   0.571171771026073   1.0
H7   H   0.429666086976312   0.393479771789110   0.761442575800835   1.0
H8   H   0.520385268411161   0.747743366503215   0.703865814274209   1.0
H9   H   0.542746770400335   0.300881578799682   0.266427811942585   1.0
I10   I   0.995197426723507   0.990019645509513   0.539788130303783   1.0
I11   I   0.998386316050500   0.467725292371590   0.013384834094502   1.0
I12   I   0.492138356266501   0.957508534477256   0.052654929343291   1.0
N13   N   0.582760197735929   0.437126650383057   0.323885256760882   1.0
N14   N   0.568492569474664   0.691356901433593   0.570990340427741   1.0
Ge15   Ge   0.041931762961831   0.032746868916455   0.976910212783501   1.0




# HOIP entry ID:                    0370
# Khazana ID:                       2220
# Organic cation source:            C.C.Stoumpos et al., J. Am. Chem. Soc. 137, 6804 (2015)
# Label:                            Acetamidinium Germanium Iodide
# Material class:                   Hybrid organic-inorganic perovskite ( MC_ino )
# Geometry class:                   Bulk crystalline materials ( GC_cry )
# Organic cation chemical formula:  CH3C(NH2)2
# Number of atom types:             5
# Total number of atoms:            15
# Atom types:                       C H N  Ge I
# Number of each atom:              2 7 2  1 3
# Bandgap, HSE06 (eV):              2.4406
# Bandgap, GGA (eV):                1.7835
# Kpoint for VBM:                   0.4211, 0.5, 0.4211
# Kpoint for CBM:                   0.4737, 0.5, 0.4737
# Dielectric constant, electronic:  4.4093
# Dielectric constant, ionic:       3.0229
# Dielectric constant, total:       7.4322
# Refractive index:                 2.0998
# Atomization energy (eV/atom):     -4.4479
# Relative energy1 (eV/atom):       0.4167
# Relative energy2 (eV/atom):       0.5147
# Volume of the unit cell (A^3):    270.57
# Density (g/cm^3):                 3.1449
# Tool:                             VASP
# Pseudopotential:                  PAW
# Note:                             ENCUT=400eV, k-spacing_relax=0.20/Angstrom, k-spacing_bandgap=0.15/Angstrom
# Created by:                       C.Kim, T.D.Huan, S.Krishnan, R. Ramprasad