data_1
_audit_creation_method   'Generated by vasp2cif'
_cell_length_a    6.51063221582
_cell_length_b    6.55059261319
_cell_length_c    6.55897955037
_cell_angle_alpha    89.0915260146
_cell_angle_beta    99.7589972072
_cell_angle_gamma    99.7091691584

_symmetry_space_group_name_H-M    'P 1'
loop_
_atom_site_label
_atom_site_type_symbol
_atom_site_fract_x
_atom_site_fract_y
_atom_site_fract_z
_atom_site_occupancy
C1   C   0.634694285531296   0.507488126421649   0.524339278631480   1.0
C2   C   0.495710834935409   0.614965164785708   0.630266003737098   1.0
H3   H   0.328774404679223   0.593766990760400   0.872831782912570   1.0
H4   H   0.329377909484570   0.858326614904797   0.608702646990423   1.0
H5   H   0.748221925023707   0.441928544922838   0.637583046244735   1.0
H6   H   0.720352462762321   0.613459250912683   0.425608732532893   1.0
H7   H   0.535940664081423   0.380462758843954   0.427752807740369   1.0
H8   H   0.480169309095594   0.844053065705289   0.417344271404623   1.0
H9   H   0.479056717299180   0.401662785161058   0.859002619799924   1.0
I10   I   0.012723147435018   0.087686894163682   0.578242441645678   1.0
I11   I   0.014619756432204   0.561506469286108   0.105790977817350   1.0
I12   I   0.515233596685839   0.052268069162949   0.067648781810227   1.0
N13   N   0.433344000273315   0.534919400139643   0.800701669180242   1.0
N14   N   0.433948449824705   0.785802188052351   0.550180845861242   1.0
Ge15   Ge   0.964902536456179   0.125753676776867   0.143014093691114   1.0




# HOIP entry ID:                    0371
# Khazana ID:                       2221
# Organic cation source:            C.C.Stoumpos et al., J. Am. Chem. Soc. 137, 6804 (2015)
# Label:                            Acetamidinium Germanium Iodide
# Material class:                   Hybrid organic-inorganic perovskite ( MC_ino )
# Geometry class:                   Bulk crystalline materials ( GC_cry )
# Organic cation chemical formula:  CH3C(NH2)2
# Number of atom types:             5
# Total number of atoms:            15
# Atom types:                       C H N  Ge I
# Number of each atom:              2 7 2  1 3
# Bandgap, HSE06 (eV):              2.4667
# Bandgap, GGA (eV):                1.8069
# Kpoint for VBM:                   0.4211, 0.5, 0.4211
# Kpoint for CBM:                   0.4737, 0.5, 0.4737
# Dielectric constant, electronic:  4.3774
# Dielectric constant, ionic:       2.8466
# Dielectric constant, total:       7.2239
# Refractive index:                 2.0922
# Atomization energy (eV/atom):     -4.4481
# Relative energy1 (eV/atom):       0.4165
# Relative energy2 (eV/atom):       0.5145
# Volume of the unit cell (A^3):    271.71
# Density (g/cm^3):                 3.1317
# Tool:                             VASP
# Pseudopotential:                  PAW
# Note:                             ENCUT=400eV, k-spacing_relax=0.20/Angstrom, k-spacing_bandgap=0.15/Angstrom
# Created by:                       C.Kim, T.D.Huan, S.Krishnan, R. Ramprasad