data_1
_audit_creation_method   'Generated by vasp2cif'
_cell_length_a    6.49412569905
_cell_length_b    6.60178126068
_cell_length_c    6.36949626344
_cell_angle_alpha    85.5658685047
_cell_angle_beta    99.3465037779
_cell_angle_gamma    89.465812849

_symmetry_space_group_name_H-M    'P 1'
loop_
_atom_site_label
_atom_site_type_symbol
_atom_site_fract_x
_atom_site_fract_y
_atom_site_fract_z
_atom_site_occupancy
C1   C   0.572238583227048   0.468742960871680   0.428889293479820   1.0
C2   C   0.514877465093733   0.626863328850177   0.566319356866835   1.0
H3   H   0.325384120909810   0.690853932552322   0.784669583055745   1.0
H4   H   0.590414148507740   0.908658849141474   0.668984985264970   1.0
H5   H   0.595417213121792   0.538678710569918   0.273571445021673   1.0
H6   H   0.452455632986279   0.354546314173170   0.406582213544439   1.0
H7   H   0.719755297104577   0.393768689164418   0.505791601243310   1.0
H8   H   0.729099394780221   0.826169323494085   0.479267303121965   1.0
H9   H   0.290321650993079   0.457485235545988   0.677906274234701   1.0
I10   I   0.084321530993194   0.099343300632931   0.546114792502998   1.0
I11   I   0.033641446558015   0.637451222070510   0.093584084850328   1.0
I12   I   0.578835075866266   0.102984671625563   0.021008220794315   1.0
N13   N   0.369942998711380   0.589144073538776   0.687777598995979   1.0
N14   N   0.613674523708227   0.801589581326319   0.567319951030136   1.0
Ge15   Ge   0.018320917438601   0.063969806442650   0.092073295992819   1.0




# HOIP entry ID:                    0372
# Khazana ID:                       2222
# Organic cation source:            C.C.Stoumpos et al., J. Am. Chem. Soc. 137, 6804 (2015)
# Label:                            Acetamidinium Germanium Iodide
# Material class:                   Hybrid organic-inorganic perovskite ( MC_ino )
# Geometry class:                   Bulk crystalline materials ( GC_cry )
# Organic cation chemical formula:  CH3C(NH2)2
# Number of atom types:             5
# Total number of atoms:            15
# Atom types:                       C H N  Ge I
# Number of each atom:              2 7 2  1 3
# Bandgap, HSE06 (eV):              2.3129
# Bandgap, GGA (eV):                1.6986
# Kpoint for VBM:                   0.4737, 0.5, 0.4737
# Kpoint for CBM:                   0.5, 0.5, 0.5
# Dielectric constant, electronic:  4.5357
# Dielectric constant, ionic:       3.9949
# Dielectric constant, total:       8.5306
# Refractive index:                 2.1297
# Atomization energy (eV/atom):     -4.4455
# Relative energy1 (eV/atom):       0.4191
# Relative energy2 (eV/atom):       0.5171
# Volume of the unit cell (A^3):    268.58
# Density (g/cm^3):                 3.1682
# Tool:                             VASP
# Pseudopotential:                  PAW
# Note:                             ENCUT=400eV, k-spacing_relax=0.20/Angstrom, k-spacing_bandgap=0.15/Angstrom
# Created by:                       C.Kim, T.D.Huan, S.Krishnan, R. Ramprasad