data_1
_audit_creation_method   'Generated by vasp2cif'
_cell_length_a    6.83023326324
_cell_length_b    4.36485389722
_cell_length_c    9.4190248619
_cell_angle_alpha    107.384790209
_cell_angle_beta    77.2504507014
_cell_angle_gamma    91.4996328909

_symmetry_space_group_name_H-M    'P 1'
loop_
_atom_site_label
_atom_site_type_symbol
_atom_site_fract_x
_atom_site_fract_y
_atom_site_fract_z
_atom_site_occupancy
C1   C   0.466770569978614   0.530722641629360   0.645187313237209   1.0
C2   C   0.473551472267829   0.324453839131536   0.485596332978737   1.0
H3   H   0.359266293909698   0.264760813047516   0.294744105172882   1.0
H4   H   0.247385714225921   0.576439343358452   0.455902062006985   1.0
H5   H   0.442351133235228   0.383168050234381   0.722421215433791   1.0
H6   H   0.611774367437924   0.641766223433017   0.650939562943101   1.0
H7   H   0.348227592373568   0.718663208136086   0.683128187706487   1.0
H8   H   0.617853933924465   0.929330178789208   0.317520967260698   1.0
H9   H   0.704992125941722   0.041300582674090   0.486105774027045   1.0
I10   I   0.519071732479112   0.759891491129231   0.033812995579524   1.0
I11   I   0.980676418890852   0.402049307811083   0.181966047415500   1.0
I12   I   0.965452350353139   0.069993640108223   0.679236504868221   1.0
N13   N   0.355891348409571   0.397995265685218   0.404694016789918   1.0
N14   N   0.600957226540622   0.070283685488398   0.427803917006557   1.0
Ge15   Ge   0.935027720031748   0.755321729344203   0.949580997573293   1.0




# HOIP entry ID:                    0374
# Khazana ID:                       2224
# Organic cation source:            C.C.Stoumpos et al., J. Am. Chem. Soc. 137, 6804 (2015)
# Label:                            Acetamidinium Germanium Iodide
# Material class:                   Hybrid organic-inorganic perovskite ( MC_ino )
# Geometry class:                   Bulk crystalline materials ( GC_cry )
# Organic cation chemical formula:  CH3C(NH2)2
# Number of atom types:             5
# Total number of atoms:            15
# Atom types:                       C H N  Ge I
# Number of each atom:              2 7 2  1 3
# Bandgap, HSE06 (eV):              3.1684
# Bandgap, GGA (eV):                2.3658
# Kpoint for VBM:                   0, 0.1667, 0.3
# Kpoint for CBM:                   -0.25, 0, 0.4
# Dielectric constant, electronic:  4.4175
# Dielectric constant, ionic:       15.4179
# Dielectric constant, total:       19.8354
# Refractive index:                 2.1018
# Atomization energy (eV/atom):     -4.4417
# Relative energy1 (eV/atom):       0.4228
# Relative energy2 (eV/atom):       0.5209
# Volume of the unit cell (A^3):    261.14
# Density (g/cm^3):                 3.2584
# Tool:                             VASP
# Pseudopotential:                  PAW
# Note:                             ENCUT=400eV, k-spacing_relax=0.20/Angstrom, k-spacing_bandgap=0.15/Angstrom
# Created by:                       C.Kim, T.D.Huan, S.Krishnan, R. Ramprasad