data_1
_audit_creation_method   'Generated by vasp2cif'
_cell_length_a    8.45580084348
_cell_length_b    4.43583200083
_cell_length_c    7.19921939263
_cell_angle_alpha    90.2347037523
_cell_angle_beta    87.6842169591
_cell_angle_gamma    79.9377601049

_symmetry_space_group_name_H-M    'P 1'
loop_
_atom_site_label
_atom_site_type_symbol
_atom_site_fract_x
_atom_site_fract_y
_atom_site_fract_z
_atom_site_occupancy
C1   C   0.598381773590780   0.934147544159707   0.520073383792717   1.0
C2   C   0.488953773487807   0.740478613323322   0.439927118732456   1.0
H3   H   0.334577423599588   0.798074317078415   0.667355887610864   1.0
H4   H   0.282140699493144   0.558127964806519   0.498313150062046   1.0
H5   H   0.689709831573543   0.786583596871514   0.598136383446286   1.0
H6   H   0.660795977865906   0.042760145784164   0.410607194872178   1.0
H7   H   0.532014047037663   0.105861623384982   0.616405506154815   1.0
H8   H   0.454139902246329   0.483178677237035   0.209105099653978   1.0
H9   H   0.619370299672212   0.667423759140883   0.194633893746637   1.0
I10   I   0.992396315895610   0.347034773352408   0.469022184653676   1.0
I11   I   0.283982320037362   0.240133862614977   0.954545740528888   1.0
I12   I   0.796397158864920   0.004629234872150   0.975594103226404   1.0
N13   N   0.361485350472125   0.690396091906443   0.541718206182710   1.0
N14   N   0.525090825000010   0.613462511814277   0.273155105999151   1.0
Ge15   Ge   0.071824301163045   0.884397283653124   0.173517041337031   1.0




# HOIP entry ID:                    0375
# Khazana ID:                       2225
# Organic cation source:            C.C.Stoumpos et al., J. Am. Chem. Soc. 137, 6804 (2015)
# Label:                            Acetamidinium Germanium Iodide
# Material class:                   Hybrid organic-inorganic perovskite ( MC_ino )
# Geometry class:                   Bulk crystalline materials ( GC_cry )
# Organic cation chemical formula:  CH3C(NH2)2
# Number of atom types:             5
# Total number of atoms:            15
# Atom types:                       C H N  Ge I
# Number of each atom:              2 7 2  1 3
# Bandgap, HSE06 (eV):              3.382
# Bandgap, GGA (eV):                2.5882
# Kpoint for VBM:                   0.5, -0.1667, 0.3
# Kpoint for CBM:                   0, 0, 0.2
# Dielectric constant, electronic:  4.1995
# Dielectric constant, ionic:       3.9113
# Dielectric constant, total:       8.1108
# Refractive index:                 2.0493
# Atomization energy (eV/atom):     -4.4378
# Relative energy1 (eV/atom):       0.4268
# Relative energy2 (eV/atom):       0.5249
# Volume of the unit cell (A^3):    265.64
# Density (g/cm^3):                 3.2032
# Tool:                             VASP
# Pseudopotential:                  PAW
# Note:                             ENCUT=400eV, k-spacing_relax=0.20/Angstrom, k-spacing_bandgap=0.15/Angstrom
# Created by:                       C.Kim, T.D.Huan, S.Krishnan, R. Ramprasad