data_1
_audit_creation_method   'Generated by vasp2cif'
_cell_length_a    6.33850520346
_cell_length_b    6.16034644418
_cell_length_c    6.19938360535
_cell_angle_alpha    91.0597515122
_cell_angle_beta    94.8239259272
_cell_angle_gamma    88.0846309123

_symmetry_space_group_name_H-M    'P 1'
loop_
_atom_site_label
_atom_site_type_symbol
_atom_site_fract_x
_atom_site_fract_y
_atom_site_fract_z
_atom_site_occupancy
I1   I   0.391359760114128   0.996806408899971   0.030777565864803   1.0
I2   I   0.872026092882670   0.994451317243751   0.516189585128885   1.0
I3   I   0.889613458655504   0.494160037249635   0.997134713202165   1.0
H4   H   0.510507062066004   0.503685927860531   0.273716051320101   1.0
H5   H   0.634484022929001   0.366476754953915   0.478061619814120   1.0
H6   H   0.619198053441508   0.638592244181758   0.487205633621251   1.0
H7   H   0.253493403795638   0.342018945848245   0.495083855283191   1.0
H8   H   0.368999848113987   0.493183657944051   0.722792539414620   1.0
H9   H   0.231711887084522   0.633153132933636   0.499040462798774   1.0
C10   C   0.330586290068638   0.491611747663164   0.548184242388515   1.0
Ge11   Ge   0.948850199937766   0.032445423140686   0.981889394169073   1.0
N12   N   0.536059920910567   0.500974402080658   0.440124336993563   1.0




# HOIP entry ID:                    0376
# Khazana ID:                       2226
# Organic cation source:            T.D.Huan et al., Phys. Rev. B 93,094105(2016)
# Label:                            Methylammonium Germanium Iodide
# Material class:                   Hybrid organic-inorganic perovskite ( MC_ino )
# Geometry class:                   Bulk crystalline materials ( GC_cry )
# Organic cation chemical formula:  CH3NH3
# Number of atom types:             5
# Total number of atoms:            12
# Atom types:                       C H N  Ge I
# Number of each atom:              1 6 1  1 3
# Bandgap, HSE06 (eV):              1.9695
# Bandgap, GGA (eV):                1.4025
# Kpoint for VBM:                   0.4474, 0.5, 0.4474
# Kpoint for CBM:                   0.4474, 0.5, 0.4474
# Dielectric constant, electronic:  5.3314
# Dielectric constant, ionic:       6.8292
# Dielectric constant, total:       12.1606
# Refractive index:                 2.309
# Atomization energy (eV/atom):     -3.9161
# Relative energy1 (eV/atom):       0.4647
# Relative energy2 (eV/atom):       0.5873
# Volume of the unit cell (A^3):    241.05
# Density (g/cm^3):                 3.3438
# Tool:                             VASP
# Pseudopotential:                  PAW
# Note:                             ENCUT=400eV, k-spacing_relax=0.20/Angstrom, k-spacing_bandgap=0.15/Angstrom
# Created by:                       C.Kim, T.D.Huan, S.Krishnan, R. Ramprasad