data_1
_audit_creation_method   'Generated by vasp2cif'
_cell_length_a    6.20049051649
_cell_length_b    6.18569819007
_cell_length_c    6.34684868246
_cell_angle_alpha    85.702742929
_cell_angle_beta    84.5178283023
_cell_angle_gamma    89.4938035287

_symmetry_space_group_name_H-M    'P 1'
loop_
_atom_site_label
_atom_site_type_symbol
_atom_site_fract_x
_atom_site_fract_y
_atom_site_fract_z
_atom_site_occupancy
I1   I   0.020936864565748   0.020988473279679   0.604021731499621   1.0
I2   I   0.497484083081396   0.999874146832276   0.113549030385961   1.0
I3   I   0.980325362865500   0.508550277842247   0.112959834576863   1.0
H4   H   0.314279489401500   0.364497296563357   0.499702020132368   1.0
H5   H   0.555059780221384   0.406837811669561   0.360847204147483   1.0
H6   H   0.381108926401488   0.611006858746109   0.384142129712792   1.0
H7   H   0.599835712283493   0.384801480533866   0.739770113242336   1.0
H8   H   0.665855565123110   0.649967953646822   0.617599238094648   1.0
H9   H   0.408456685216421   0.602210891066584   0.768082644454282   1.0
C10   C   0.536585796131824   0.532830673269046   0.664101848188544   1.0
Ge11   Ge   0.958251772328339   0.969697967978156   0.051318862813723   1.0
N12   N   0.439809962379741   0.474886168572347   0.464915342751361   1.0




# HOIP entry ID:                    0377
# Khazana ID:                       2227
# Organic cation source:            T.D.Huan et al., Phys. Rev. B 93,094105(2016)
# Label:                            Methylammonium Germanium Iodide
# Material class:                   Hybrid organic-inorganic perovskite ( MC_ino )
# Geometry class:                   Bulk crystalline materials ( GC_cry )
# Organic cation chemical formula:  CH3NH3
# Number of atom types:             5
# Total number of atoms:            12
# Atom types:                       C H N  Ge I
# Number of each atom:              1 6 1  1 3
# Bandgap, HSE06 (eV):              2.0292
# Bandgap, GGA (eV):                1.5001
# Kpoint for VBM:                   0.5, 0.5, 0.3947
# Kpoint for CBM:                   0.5, 0.5, 0.5
# Dielectric constant, electronic:  5.2779
# Dielectric constant, ionic:       6.9622
# Dielectric constant, total:       12.2401
# Refractive index:                 2.2974
# Atomization energy (eV/atom):     -3.9159
# Relative energy1 (eV/atom):       0.4649
# Relative energy2 (eV/atom):       0.5874
# Volume of the unit cell (A^3):    241.63
# Density (g/cm^3):                 3.3358
# Tool:                             VASP
# Pseudopotential:                  PAW
# Note:                             ENCUT=400eV, k-spacing_relax=0.20/Angstrom, k-spacing_bandgap=0.15/Angstrom
# Created by:                       C.Kim, T.D.Huan, S.Krishnan, R. Ramprasad