data_1
_audit_creation_method   'Generated by vasp2cif'
_cell_length_a    6.64939155295
_cell_length_b    4.47594078679
_cell_length_c    8.26105543295
_cell_angle_alpha    102.055048914
_cell_angle_beta    79.105130723
_cell_angle_gamma    93.3154990723

_symmetry_space_group_name_H-M    'P 1'
loop_
_atom_site_label
_atom_site_type_symbol
_atom_site_fract_x
_atom_site_fract_y
_atom_site_fract_z
_atom_site_occupancy
I1   I   0.995555566407099   0.599542910123020   0.727005629890307   1.0
I2   I   0.522010704131745   0.212984120499719   0.073957732579480   1.0
I3   I   0.983377834637317   0.804846137182558   0.270221968376411   1.0
H4   H   0.321945729763122   0.747080389630099   0.500814008952268   1.0
H5   H   0.567704668371569   0.715926733564558   0.395290701414034   1.0
H6   H   0.414153794217725   0.957755430339191   0.356359166872011   1.0
H7   H   0.557643967570776   0.996549843788998   0.684080177117295   1.0
H8   H   0.651811985152015   0.228065018361598   0.533774564179929   1.0
H9   H   0.390510434616033   0.261976375747096   0.645353630310126   1.0
C10   C   0.517779488297499   0.108446403987862   0.589626456929928   1.0
Ge11   Ge   0.954678861666025   0.207817277479883   0.007482935734046   1.0
N12   N   0.450176965169128   0.865509359295466   0.452353027644229   1.0




# HOIP entry ID:                    0378
# Khazana ID:                       2228
# Organic cation source:            T.D.Huan et al., Phys. Rev. B 93,094105(2016)
# Label:                            Methylammonium Germanium Iodide
# Material class:                   Hybrid organic-inorganic perovskite ( MC_ino )
# Geometry class:                   Bulk crystalline materials ( GC_cry )
# Organic cation chemical formula:  CH3NH3
# Number of atom types:             5
# Total number of atoms:            12
# Atom types:                       C H N  Ge I
# Number of each atom:              1 6 1  1 3
# Bandgap, HSE06 (eV):              2.9739
# Bandgap, GGA (eV):                2.1543
# Kpoint for VBM:                   0.1667, -0.1667, 0.3
# Kpoint for CBM:                   0.5, 0.5, 0
# Dielectric constant, electronic:  4.8418
# Dielectric constant, ionic:       86.4196
# Dielectric constant, total:       91.2614
# Refractive index:                 2.2004
# Atomization energy (eV/atom):     -3.9064
# Relative energy1 (eV/atom):       0.4744
# Relative energy2 (eV/atom):       0.5969
# Volume of the unit cell (A^3):    236.07
# Density (g/cm^3):                 3.4144
# Tool:                             VASP
# Pseudopotential:                  PAW
# Note:                             ENCUT=400eV, k-spacing_relax=0.20/Angstrom, k-spacing_bandgap=0.15/Angstrom
# Created by:                       C.Kim, T.D.Huan, S.Krishnan, R. Ramprasad