data_1
_audit_creation_method   'Generated by vasp2cif'
_cell_length_a    6.92577875336
_cell_length_b    4.51513903493
_cell_length_c    8.38332254606
_cell_angle_alpha    106.176918587
_cell_angle_beta    84.5570713808
_cell_angle_gamma    75.1478200589

_symmetry_space_group_name_H-M    'P 1'
loop_
_atom_site_label
_atom_site_type_symbol
_atom_site_fract_x
_atom_site_fract_y
_atom_site_fract_z
_atom_site_occupancy
I1   I   0.953166117860007   0.773352664775572   0.260404889559922   1.0
I2   I   0.457596819539724   0.912917227789343   0.970267862438853   1.0
I3   I   0.062333941767356   0.438334064490483   0.705733107559539   1.0
H4   H   0.693363872464779   0.303740284765290   0.475253630450354   1.0
H5   H   0.538386740981728   0.616019619250174   0.637854905247679   1.0
H6   H   0.706679908048692   0.671300937876651   0.499833860602521   1.0
H7   H   0.359235164404389   0.427661759043936   0.400259246528172   1.0
H8   H   0.356260248684521   0.838145024126725   0.442684078726551   1.0
H9   H   0.533551567229871   0.530917919441336   0.268867212811251   1.0
C10   C   0.451519610603164   0.588158085204270   0.396150621558292   1.0
Ge11   Ge   0.041393250281615   0.080756176283529   0.972345669189359   1.0
N12   N   0.604892758134142   0.542826236952770   0.511344915327513   1.0




# HOIP entry ID:                    0379
# Khazana ID:                       2229
# Organic cation source:            T.D.Huan et al., Phys. Rev. B 93,094105(2016)
# Label:                            Methylammonium Germanium Iodide
# Material class:                   Hybrid organic-inorganic perovskite ( MC_ino )
# Geometry class:                   Bulk crystalline materials ( GC_cry )
# Organic cation chemical formula:  CH3NH3
# Number of atom types:             5
# Total number of atoms:            12
# Atom types:                       C H N  Ge I
# Number of each atom:              1 6 1  1 3
# Bandgap, HSE06 (eV):              3.0054
# Bandgap, GGA (eV):                2.2395
# Kpoint for VBM:                   -0.0833, -0.2222, 0.0833
# Kpoint for CBM:                   -0.4167, 0, 0.4167
# Dielectric constant, electronic:  4.609
# Dielectric constant, ionic:       53.6133
# Dielectric constant, total:       58.2223
# Refractive index:                 2.1469
# Atomization energy (eV/atom):     -3.9043
# Relative energy1 (eV/atom):       0.4765
# Relative energy2 (eV/atom):       0.5991
# Volume of the unit cell (A^3):    239.43
# Density (g/cm^3):                 3.3664
# Tool:                             VASP
# Pseudopotential:                  PAW
# Note:                             ENCUT=400eV, k-spacing_relax=0.20/Angstrom, k-spacing_bandgap=0.15/Angstrom
# Created by:                       C.Kim, T.D.Huan, S.Krishnan, R. Ramprasad