data_1
_audit_creation_method   'Generated by vasp2cif'
_cell_length_a    8.48310752633
_cell_length_b    4.42952342676
_cell_length_c    6.27596201822
_cell_angle_alpha    86.7451864142
_cell_angle_beta    94.1483853225
_cell_angle_gamma    90.3283282458

_symmetry_space_group_name_H-M    'P 1'
loop_
_atom_site_label
_atom_site_type_symbol
_atom_site_fract_x
_atom_site_fract_y
_atom_site_fract_z
_atom_site_occupancy
I1   I   0.193220910521965   0.713199980416995   0.059573129390166   1.0
I2   I   0.911009092832749   0.172866517343387   0.515231699017221   1.0
I3   I   0.667418713254705   0.712109906696988   0.996322735038000   1.0
H4   H   0.419659325589464   0.011425727263877   0.302276155863517   1.0
H5   H   0.590988979969566   0.087730683068500   0.445285540565450   1.0
H6   H   0.499017994000766   0.354946821451762   0.288898404913382   1.0
H7   H   0.364119949975532   0.047662752531416   0.675132224968451   1.0
H8   H   0.456303753521901   0.411221607584011   0.672154242870327   1.0
H9   H   0.274607872847220   0.353967994733466   0.512634249107549   1.0
C10   C   0.385870400176735   0.253275817189660   0.577815876061372   1.0
Ge11   Ge   0.930990113889600   0.233860371601509   0.072428610717225   1.0
N12   N   0.479632893419890   0.170091820118351   0.392817131487497   1.0




# HOIP entry ID:                    0380
# Khazana ID:                       2230
# Organic cation source:            T.D.Huan et al., Phys. Rev. B 93,094105(2016)
# Label:                            Methylammonium Germanium Iodide
# Material class:                   Hybrid organic-inorganic perovskite ( MC_ino )
# Geometry class:                   Bulk crystalline materials ( GC_cry )
# Organic cation chemical formula:  CH3NH3
# Number of atom types:             5
# Total number of atoms:            12
# Atom types:                       C H N  Ge I
# Number of each atom:              1 6 1  1 3
# Bandgap, HSE06 (eV):              2.8031
# Bandgap, GGA (eV):                2.1287
# Kpoint for VBM:                   0.5, 0.1667, 0.5
# Kpoint for CBM:                   0, 0.0556, 0.5
# Dielectric constant, electronic:  4.9379
# Dielectric constant, ionic:       16.2524
# Dielectric constant, total:       21.1903
# Refractive index:                 2.2221
# Atomization energy (eV/atom):     -3.9057
# Relative energy1 (eV/atom):       0.4751
# Relative energy2 (eV/atom):       0.5977
# Volume of the unit cell (A^3):    234.83
# Density (g/cm^3):                 3.4324
# Tool:                             VASP
# Pseudopotential:                  PAW
# Note:                             ENCUT=400eV, k-spacing_relax=0.20/Angstrom, k-spacing_bandgap=0.15/Angstrom
# Created by:                       C.Kim, T.D.Huan, S.Krishnan, R. Ramprasad