data_1
_audit_creation_method   'Generated by vasp2cif'
_cell_length_a    8.33319155876
_cell_length_b    4.64153623906
_cell_length_c    7.7536167513
_cell_angle_alpha    55.2271053677
_cell_angle_beta    102.127144357
_cell_angle_gamma    107.517774093

_symmetry_space_group_name_H-M    'P 1'
loop_
_atom_site_label
_atom_site_type_symbol
_atom_site_fract_x
_atom_site_fract_y
_atom_site_fract_z
_atom_site_occupancy
I1   I   0.268458849382875   0.945396287674257   0.047809774112417   1.0
I2   I   0.945085201782496   0.738910686553764   0.578366184132654   1.0
I3   I   0.724758980344680   0.641942839518933   0.062022495518080   1.0
H4   H   0.611597870336107   0.527039097482600   0.561692642797614   1.0
H5   H   0.426845816301772   0.618566956439525   0.425045838588674   1.0
H6   H   0.432797618639737   0.353442815144660   0.691888969097253   1.0
H7   H   0.494891860535984   0.177937864459625   0.401819404859260   1.0
H8   H   0.507700292566260   0.898220479421503   0.684859102826041   1.0
H9   H   0.308870632756845   0.992234827192403   0.546951981665095   1.0
C10   C   0.445035981437983   0.094114654091983   0.546676220246087   1.0
Ge11   Ge   0.982048066460837   0.373894915557841   0.022281786615425   1.0
N12   N   0.482208829454501   0.422998576462991   0.557235599541490   1.0




# HOIP entry ID:                    0381
# Khazana ID:                       2231
# Organic cation source:            T.D.Huan et al., Phys. Rev. B 93,094105(2016)
# Label:                            Methylammonium Germanium Iodide
# Material class:                   Hybrid organic-inorganic perovskite ( MC_ino )
# Geometry class:                   Bulk crystalline materials ( GC_cry )
# Organic cation chemical formula:  CH3NH3
# Number of atom types:             5
# Total number of atoms:            12
# Atom types:                       C H N  Ge I
# Number of each atom:              1 6 1  1 3
# Bandgap, HSE06 (eV):              2.8859
# Bandgap, GGA (eV):                2.1252
# Kpoint for VBM:                   0, -0.25, 0.2857
# Kpoint for CBM:                   0, 0.5, 0
# Dielectric constant, electronic:  4.94
# Dielectric constant, ionic:       10.2076
# Dielectric constant, total:       15.1477
# Refractive index:                 2.2226
# Atomization energy (eV/atom):     -3.906
# Relative energy1 (eV/atom):       0.4748
# Relative energy2 (eV/atom):       0.5974
# Volume of the unit cell (A^3):    234.64
# Density (g/cm^3):                 3.4352
# Tool:                             VASP
# Pseudopotential:                  PAW
# Note:                             ENCUT=400eV, k-spacing_relax=0.20/Angstrom, k-spacing_bandgap=0.15/Angstrom
# Created by:                       C.Kim, T.D.Huan, S.Krishnan, R. Ramprasad