data_1
_audit_creation_method   'Generated by vasp2cif'
_cell_length_a    6.4065163412
_cell_length_b    6.44643462889
_cell_length_c    6.41628838795
_cell_angle_alpha    96.8018940041
_cell_angle_beta    95.7677601924
_cell_angle_gamma    95.3125862711

_symmetry_space_group_name_H-M    'P 1'
loop_
_atom_site_label
_atom_site_type_symbol
_atom_site_fract_x
_atom_site_fract_y
_atom_site_fract_z
_atom_site_occupancy
C1   C   0.300499851107787   0.291705933889233   0.337297850261471   1.0
H2   H   0.092274405392182   0.257081231981601   0.558804939678289   1.0
H3   H   0.085584177905865   0.509872764119351   0.317635139002640   1.0
H4   H   0.536025842736642   0.096850798592690   0.312302485906557   1.0
H5   H   0.532415946456823   0.281920150260120   0.137348890091012   1.0
H6   H   0.273997562676577   0.523106033287327   0.143400656983630   1.0
H7   H   0.285648546023673   0.087179875097391   0.560348825632424   1.0
I8   I   0.763683913165600   0.763697190564464   0.354815294268057   1.0
I9   I   0.769321788718564   0.309126657719574   0.806251425910041   1.0
I10   I   0.277656286781521   0.785627649644873   0.835139857111614   1.0
N11   N   0.217131645821965   0.202108379386559   0.492497866724612   1.0
N12   N   0.212189385526777   0.450626237832346   0.258858168782808   1.0
N13   N   0.471201252007916   0.221845468348889   0.260139029177267   1.0
Ge14   Ge   0.830469395678151   0.751441629275547   0.799219570469596   1.0




# HOIP entry ID:                    0382
# Khazana ID:                       2232
# Organic cation source:            B.Saparov et al., Chem. Rev. 116, 4558 (2016)
# Label:                            Guanidinium Germanium Iodide
# Material class:                   Hybrid organic-inorganic perovskite ( MC_ino )
# Geometry class:                   Bulk crystalline materials ( GC_cry )
# Organic cation chemical formula:  C(NH2)3
# Number of atom types:             5
# Total number of atoms:            14
# Atom types:                       C H N  Ge I
# Number of each atom:              1 6 3  1 3
# Bandgap, HSE06 (eV):              2.2305
# Bandgap, GGA (eV):                1.6035
# Kpoint for VBM:                   0.5, 0.5, 0.5
# Kpoint for CBM:                   0.5, 0.5, 0.5
# Dielectric constant, electronic:  4.7136
# Dielectric constant, ionic:       4.4988
# Dielectric constant, total:       9.2124
# Refractive index:                 2.1711
# Atomization energy (eV/atom):     -4.469
# Relative energy1 (eV/atom):       0.6319
# Relative energy2 (eV/atom):       0.737
# Volume of the unit cell (A^3):    260.32
# Density (g/cm^3):                 3.275
# Tool:                             VASP
# Pseudopotential:                  PAW
# Note:                             ENCUT=400eV, k-spacing_relax=0.20/Angstrom, k-spacing_bandgap=0.15/Angstrom
# Created by:                       C.Kim, T.D.Huan, S.Krishnan, R. Ramprasad