data_1
_audit_creation_method   'Generated by vasp2cif'
_cell_length_a    6.06405608853
_cell_length_b    6.23049846001
_cell_length_c    6.10631621535
_cell_angle_alpha    97.6208095149
_cell_angle_beta    87.1669147228
_cell_angle_gamma    93.3217346918

_symmetry_space_group_name_H-M    'P 1'
loop_
_atom_site_label
_atom_site_type_symbol
_atom_site_fract_x
_atom_site_fract_y
_atom_site_fract_z
_atom_site_occupancy
I1   I   0.052359417497186   0.983294496885662   0.555785620970603   1.0
I2   I   0.514952709692942   0.898998412141211   0.020007086073292   1.0
I3   I   0.997553711678705   0.450184993959155   0.114145210393040   1.0
H4   H   0.346216774929239   0.494167659433593   0.375836555486423   1.0
H5   H   0.626553793337393   0.537515603510549   0.365856115663782   1.0
H6   H   0.470857405947434   0.666242206297078   0.580984868420323   1.0
H7   H   0.381008546044669   0.257422959435800   0.591995753568803   1.0
Ge8   Ge   0.975723168582988   0.992036895817456   0.019421969559367   1.0
N9   N   0.486483244757466   0.525300504241613   0.470494306392240   1.0
O10   O   0.522031227531905   0.349356268277866   0.597462513471989   1.0




# HOIP entry ID:                    0385
# Khazana ID:                       2235
# Organic cation source:            G.Kieslich et al., Chem. Sci. 6, 3430 (2015)
# Label:                            Hydroxylammonium Germanium Iodide
# Material class:                   Hybrid organic-inorganic perovskite ( MC_ino )
# Geometry class:                   Bulk crystalline materials ( GC_cry )
# Organic cation chemical formula:  OHNH3
# Number of atom types:             5
# Total number of atoms:            10
# Atom types:                        H N O Ge I
# Number of each atom:               4 1  1 3
# Bandgap, HSE06 (eV):              2.1098
# Bandgap, GGA (eV):                1.6032
# Kpoint for VBM:                   0.5, 0.5, 0.5
# Kpoint for CBM:                   0.4474, 0.4474, 0.4474
# Dielectric constant, electronic:  5.5546
# Dielectric constant, ionic:       7.6061
# Dielectric constant, total:       13.1607
# Refractive index:                 2.3568
# Atomization energy (eV/atom):     -3.573
# Relative energy1 (eV/atom):       0.7466
# Relative energy2 (eV/atom):       0.8937
# Volume of the unit cell (A^3):    228.08
# Density (g/cm^3):                 3.5483
# Tool:                             VASP
# Pseudopotential:                  PAW
# Note:                             ENCUT=400eV, k-spacing_relax=0.20/Angstrom, k-spacing_bandgap=0.15/Angstrom
# Created by:                       C.Kim, T.D.Huan, S.Krishnan, R. Ramprasad