data_1
_audit_creation_method   'Generated by vasp2cif'
_cell_length_a    6.28171649196
_cell_length_b    4.4551843076
_cell_length_c    7.90631447564
_cell_angle_alpha    105.716342162
_cell_angle_beta    88.1256835497
_cell_angle_gamma    91.4198827817

_symmetry_space_group_name_H-M    'P 1'
loop_
_atom_site_label
_atom_site_type_symbol
_atom_site_fract_x
_atom_site_fract_y
_atom_site_fract_z
_atom_site_occupancy
I1   I   0.984309747114231   0.172396253949373   0.731483280665294   1.0
I2   I   0.458129095834281   0.829432266646073   0.031685613260123   1.0
I3   I   0.946722766056439   0.442838060990816   0.296148483011756   1.0
H4   H   0.497343412821941   0.926208805417296   0.380424837256200   1.0
H5   H   0.629367097422232   0.954526021081520   0.571066684451395   1.0
H6   H   0.368288485582084   0.060752197927087   0.582728074202720   1.0
H7   H   0.282745760962797   0.555688457207971   0.445694860898385   1.0
Ge8   Ge   0.010150380633981   0.806621534969338   0.015181277893959   1.0
N9   N   0.482946684606567   0.909170190042538   0.509944085288552   1.0
O10   O   0.421516568965444   0.593576211767946   0.509422803071566   1.0




# HOIP entry ID:                    0386
# Khazana ID:                       2236
# Organic cation source:            G.Kieslich et al., Chem. Sci. 6, 3430 (2015)
# Label:                            Hydroxylammonium Germanium Iodide
# Material class:                   Hybrid organic-inorganic perovskite ( MC_ino )
# Geometry class:                   Bulk crystalline materials ( GC_cry )
# Organic cation chemical formula:  OHNH3
# Number of atom types:             5
# Total number of atoms:            10
# Atom types:                        H N O Ge I
# Number of each atom:               4 1  1 3
# Bandgap, HSE06 (eV):              2.554
# Bandgap, GGA (eV):                1.8764
# Kpoint for VBM:                   0.5, -0.2778, 0.1667
# Kpoint for CBM:                   0.5, 0.5, 0.3684
# Dielectric constant, electronic:  5.6608
# Dielectric constant, ionic:       26.4911
# Dielectric constant, total:       32.1519
# Refractive index:                 2.3792
# Atomization energy (eV/atom):     -3.5893
# Relative energy1 (eV/atom):       0.7303
# Relative energy2 (eV/atom):       0.8773
# Volume of the unit cell (A^3):    212.85
# Density (g/cm^3):                 3.8022
# Tool:                             VASP
# Pseudopotential:                  PAW
# Note:                             ENCUT=400eV, k-spacing_relax=0.20/Angstrom, k-spacing_bandgap=0.15/Angstrom
# Created by:                       C.Kim, T.D.Huan, S.Krishnan, R. Ramprasad