data_1
_audit_creation_method   'Generated by vasp2cif'
_cell_length_a    7.92521904016
_cell_length_b    4.48419276064
_cell_length_c    6.28376378528
_cell_angle_alpha    88.5373887754
_cell_angle_beta    92.5914370126
_cell_angle_gamma    73.1641600527

_symmetry_space_group_name_H-M    'P 1'
loop_
_atom_site_label
_atom_site_type_symbol
_atom_site_fract_x
_atom_site_fract_y
_atom_site_fract_z
_atom_site_occupancy
I1   I   0.781563021199915   0.323668911741137   0.131185333445877   1.0
I2   I   0.089454505115668   0.659640008950312   0.619656996610338   1.0
I3   I   0.348503342244342   0.031778947647027   0.150989349041048   1.0
H4   H   0.439681708297023   0.389015270756289   0.606079626269299   1.0
H5   H   0.629490071193402   0.223671476896257   0.479562797155744   1.0
H6   H   0.643484861822230   0.314309991022157   0.741571191881938   1.0
H7   H   0.496158038149026   0.957051708602151   0.817489274233921   1.0
Ge8   Ge   0.066756224382154   0.707530622139480   0.167875448277322   1.0
N9   N   0.568867026179390   0.239431637798404   0.624412853106683   1.0
O10   O   0.564681201416825   0.927841424446775   0.684567129977829   1.0




# HOIP entry ID:                    0387
# Khazana ID:                       2237
# Organic cation source:            G.Kieslich et al., Chem. Sci. 6, 3430 (2015)
# Label:                            Hydroxylammonium Germanium Iodide
# Material class:                   Hybrid organic-inorganic perovskite ( MC_ino )
# Geometry class:                   Bulk crystalline materials ( GC_cry )
# Organic cation chemical formula:  OHNH3
# Number of atom types:             5
# Total number of atoms:            10
# Atom types:                        H N O Ge I
# Number of each atom:               4 1  1 3
# Bandgap, HSE06 (eV):              2.5588
# Bandgap, GGA (eV):                1.9051
# Kpoint for VBM:                   0.1, 0.2778, 0.5
# Kpoint for CBM:                   0.5, 0.5, 0.5
# Dielectric constant, electronic:  5.6263
# Dielectric constant, ionic:       13.8687
# Dielectric constant, total:       19.495
# Refractive index:                 2.372
# Atomization energy (eV/atom):     -3.5883
# Relative energy1 (eV/atom):       0.7313
# Relative energy2 (eV/atom):       0.8784
# Volume of the unit cell (A^3):    213.35
# Density (g/cm^3):                 3.7933
# Tool:                             VASP
# Pseudopotential:                  PAW
# Note:                             ENCUT=400eV, k-spacing_relax=0.20/Angstrom, k-spacing_bandgap=0.15/Angstrom
# Created by:                       C.Kim, T.D.Huan, S.Krishnan, R. Ramprasad