data_1
_audit_creation_method   'Generated by vasp2cif'
_cell_length_a    6.21461476567
_cell_length_b    4.4103505067
_cell_length_c    8.02638146664
_cell_angle_alpha    105.327974336
_cell_angle_beta    87.1217339046
_cell_angle_gamma    92.9712778361

_symmetry_space_group_name_H-M    'P 1'
loop_
_atom_site_label
_atom_site_type_symbol
_atom_site_fract_x
_atom_site_fract_y
_atom_site_fract_z
_atom_site_occupancy
I1   I   0.865097390256302   0.901983524222800   0.765987862057251   1.0
I2   I   0.348290455166051   0.574228885673911   0.026156090661736   1.0
I3   I   0.868760344599274   0.172985702418771   0.329986017367233   1.0
H4   H   0.452114763712082   0.129751639426608   0.489726337674604   1.0
H5   H   0.482461419341774   0.007715659181706   0.668890834462971   1.0
H6   H   0.225391435913245   0.051162711860918   0.610358934095274   1.0
H7   H   0.354497017525084   0.655236982993848   0.348070267086818   1.0
Ge8   Ge   0.886674813925978   0.505819152298770   0.052701763993582   1.0
N9   N   0.382296143540586   0.991054214916893   0.565940243428528   1.0
O10   O   0.379686216019678   0.661391527005797   0.471581649172059   1.0




# HOIP entry ID:                    0388
# Khazana ID:                       2238
# Organic cation source:            G.Kieslich et al., Chem. Sci. 6, 3430 (2015)
# Label:                            Hydroxylammonium Germanium Iodide
# Material class:                   Hybrid organic-inorganic perovskite ( MC_ino )
# Geometry class:                   Bulk crystalline materials ( GC_cry )
# Organic cation chemical formula:  OHNH3
# Number of atom types:             5
# Total number of atoms:            10
# Atom types:                        H N O Ge I
# Number of each atom:               4 1  1 3
# Bandgap, HSE06 (eV):              2.4747
# Bandgap, GGA (eV):                1.7903
# Kpoint for VBM:                   0.5, 0.0556, 0.5
# Kpoint for CBM:                   0.5, 0.5, 0
# Dielectric constant, electronic:  5.7211
# Dielectric constant, ionic:       27.0321
# Dielectric constant, total:       32.7532
# Refractive index:                 2.3919
# Atomization energy (eV/atom):     -3.5855
# Relative energy1 (eV/atom):       0.7341
# Relative energy2 (eV/atom):       0.8811
# Volume of the unit cell (A^3):    211.73
# Density (g/cm^3):                 3.8223
# Tool:                             VASP
# Pseudopotential:                  PAW
# Note:                             ENCUT=400eV, k-spacing_relax=0.20/Angstrom, k-spacing_bandgap=0.15/Angstrom
# Created by:                       C.Kim, T.D.Huan, S.Krishnan, R. Ramprasad