data_1
_audit_creation_method   'Generated by vasp2cif'
_cell_length_a    7.98995146573
_cell_length_b    4.4115896854
_cell_length_c    6.50332995018
_cell_angle_alpha    88.8391270417
_cell_angle_beta    78.401279251
_cell_angle_gamma    75.5454267246

_symmetry_space_group_name_H-M    'P 1'
loop_
_atom_site_label
_atom_site_type_symbol
_atom_site_fract_x
_atom_site_fract_y
_atom_site_fract_z
_atom_site_occupancy
I1   I   0.785886068062382   0.384543275933510   0.228202831201273   1.0
I2   I   0.144216880755728   0.728039561354237   0.741011841127346   1.0
I3   I   0.352898733570413   0.127743430060271   0.205606876732325   1.0
H4   H   0.441742462755187   0.971137362951680   0.621277463682510   1.0
H5   H   0.622224124512577   0.124662319926330   0.551277084788879   1.0
H6   H   0.483230566724949   0.211833012258794   0.792008831244267   1.0
H7   H   0.610634805676078   0.796517366483670   0.910674180175711   1.0
Ge8   Ge   0.071784522185801   0.772867326003727   0.181790848256092   1.0
N9   N   0.541637509892603   0.040727853333543   0.673836846117858   1.0
O10   O   0.652724325864313   0.771158491694273   0.755303196673708   1.0




# HOIP entry ID:                    0389
# Khazana ID:                       2239
# Organic cation source:            G.Kieslich et al., Chem. Sci. 6, 3430 (2015)
# Label:                            Hydroxylammonium Germanium Iodide
# Material class:                   Hybrid organic-inorganic perovskite ( MC_ino )
# Geometry class:                   Bulk crystalline materials ( GC_cry )
# Organic cation chemical formula:  OHNH3
# Number of atom types:             5
# Total number of atoms:            10
# Atom types:                        H N O Ge I
# Number of each atom:               4 1  1 3
# Bandgap, HSE06 (eV):              2.9109
# Bandgap, GGA (eV):                2.1746
# Kpoint for VBM:                   0.5, 0.0556, 0.5
# Kpoint for CBM:                   0.1, 0.5, 0.5
# Dielectric constant, electronic:  5.3577
# Dielectric constant, ionic:       18.2597
# Dielectric constant, total:       23.6174
# Refractive index:                 2.3147
# Atomization energy (eV/atom):     -3.5779
# Relative energy1 (eV/atom):       0.7416
# Relative energy2 (eV/atom):       0.8887
# Volume of the unit cell (A^3):    217.33
# Density (g/cm^3):                 3.7238
# Tool:                             VASP
# Pseudopotential:                  PAW
# Note:                             ENCUT=400eV, k-spacing_relax=0.20/Angstrom, k-spacing_bandgap=0.15/Angstrom
# Created by:                       C.Kim, T.D.Huan, S.Krishnan, R. Ramprasad