data_1
_audit_creation_method   'Generated by vasp2cif'
_cell_length_a    6.61368725222
_cell_length_b    4.44459044841
_cell_length_c    7.94255090139
_cell_angle_alpha    104.581730344
_cell_angle_beta    102.106633521
_cell_angle_gamma    80.4710480967

_symmetry_space_group_name_H-M    'P 1'
loop_
_atom_site_label
_atom_site_type_symbol
_atom_site_fract_x
_atom_site_fract_y
_atom_site_fract_z
_atom_site_occupancy
I1   I   0.842381152574205   0.162091971091925   0.750241057088743   1.0
I2   I   0.366351640914729   0.667565888241995   0.011955355133132   1.0
I3   I   0.956891198561635   0.387672487189320   0.327895715438409   1.0
H4   H   0.218984121948878   0.063132050311303   0.539888560750043   1.0
H5   H   0.464395971224782   0.079621498439167   0.665069690670144   1.0
H6   H   0.296855408205793   0.874642151561680   0.712616492181731   1.0
H7   H   0.312500142914210   0.570292479782466   0.418918079860696   1.0
Ge8   Ge   0.938673744642571   0.801962266280050   0.030494778551869   1.0
N9   N   0.342644989238451   0.942246827999242   0.610940677949380   1.0
O10   O   0.435231629774791   0.671912379102885   0.494349592375840   1.0




# HOIP entry ID:                    0390
# Khazana ID:                       2240
# Organic cation source:            G.Kieslich et al., Chem. Sci. 6, 3430 (2015)
# Label:                            Hydroxylammonium Germanium Iodide
# Material class:                   Hybrid organic-inorganic perovskite ( MC_ino )
# Geometry class:                   Bulk crystalline materials ( GC_cry )
# Organic cation chemical formula:  OHNH3
# Number of atom types:             5
# Total number of atoms:            10
# Atom types:                        H N O Ge I
# Number of each atom:               4 1  1 3
# Bandgap, HSE06 (eV):              3.0182
# Bandgap, GGA (eV):                2.2754
# Kpoint for VBM:                   -0.3333, 0.0556, 0.5
# Kpoint for CBM:                   0.5, 0.5, 0
# Dielectric constant, electronic:  5.0428
# Dielectric constant, ionic:       10.4561
# Dielectric constant, total:       15.499
# Refractive index:                 2.2456
# Atomization energy (eV/atom):     -3.5805
# Relative energy1 (eV/atom):       0.739
# Relative energy2 (eV/atom):       0.8861
# Volume of the unit cell (A^3):    219.35
# Density (g/cm^3):                 3.6895
# Tool:                             VASP
# Pseudopotential:                  PAW
# Note:                             ENCUT=400eV, k-spacing_relax=0.20/Angstrom, k-spacing_bandgap=0.15/Angstrom
# Created by:                       C.Kim, T.D.Huan, S.Krishnan, R. Ramprasad