data_1
_audit_creation_method   'Generated by vasp2cif'
_cell_length_a    8.09034884478
_cell_length_b    4.4079949186
_cell_length_c    6.29498273453
_cell_angle_alpha    88.834118075
_cell_angle_beta    92.4997258399
_cell_angle_gamma    73.7410832988

_symmetry_space_group_name_H-M    'P 1'
loop_
_atom_site_label
_atom_site_type_symbol
_atom_site_fract_x
_atom_site_fract_y
_atom_site_fract_z
_atom_site_occupancy
I1   I   0.269078497143752   0.018401712895098   0.973161273951433   1.0
I2   I   0.947331532936865   0.712286772062320   0.494853393234109   1.0
I3   I   0.705538247482174   0.304741764279918   0.978099432918363   1.0
H4   H   0.556790402776443   0.517701235743523   0.303015414471503   1.0
H5   H   0.625028559663704   0.577186724005124   0.553306351338698   1.0
H6   H   0.462693217534621   0.326815995572154   0.685499957670523   1.0
H7   H   0.428559399500308   0.803815233655428   0.450617762626230   1.0
Ge8   Ge   0.995732187414127   0.653984613319004   0.939594557163332   1.0
N9   N   0.516450288888876   0.581949317744417   0.455855072313021   1.0
O10   O   0.434127666659059   0.347876630723071   0.528876784312772   1.0




# HOIP entry ID:                    0391
# Khazana ID:                       2241
# Organic cation source:            G.Kieslich et al., Chem. Sci. 6, 3430 (2015)
# Label:                            Hydroxylammonium Germanium Iodide
# Material class:                   Hybrid organic-inorganic perovskite ( MC_ino )
# Geometry class:                   Bulk crystalline materials ( GC_cry )
# Organic cation chemical formula:  OHNH3
# Number of atom types:             5
# Total number of atoms:            10
# Atom types:                        H N O Ge I
# Number of each atom:               4 1  1 3
# Bandgap, HSE06 (eV):              2.9181
# Bandgap, GGA (eV):                2.0933
# Kpoint for VBM:                   0.1, 0, 0
# Kpoint for CBM:                   0.5, 0.5, 0.5
# Dielectric constant, electronic:  5.541
# Dielectric constant, ionic:       19.2696
# Dielectric constant, total:       24.8106
# Refractive index:                 2.3539
# Atomization energy (eV/atom):     -3.5796
# Relative energy1 (eV/atom):       0.7399
# Relative energy2 (eV/atom):       0.887
# Volume of the unit cell (A^3):    215.19
# Density (g/cm^3):                 3.7609
# Tool:                             VASP
# Pseudopotential:                  PAW
# Note:                             ENCUT=400eV, k-spacing_relax=0.20/Angstrom, k-spacing_bandgap=0.15/Angstrom
# Created by:                       C.Kim, T.D.Huan, S.Krishnan, R. Ramprasad