data_1
_audit_creation_method   'Generated by vasp2cif'
_cell_length_a    6.30273828678
_cell_length_b    6.34570062288
_cell_length_c    6.24380397407
_cell_angle_alpha    82.3369345777
_cell_angle_beta    85.8016424002
_cell_angle_gamma    87.0200302285

_symmetry_space_group_name_H-M    'P 1'
loop_
_atom_site_label
_atom_site_type_symbol
_atom_site_fract_x
_atom_site_fract_y
_atom_site_fract_z
_atom_site_occupancy
Ge1   Ge   0.649332611751774   0.330760922288377   0.463599087975865   1.0
I2   I   0.637909485607942   0.883176804131274   0.516431760675339   1.0
I3   I   0.100493842069717   0.357228631416646   0.478952022306835   1.0
I4   I   0.611827400248409   0.401576631105257   0.007617830842435   1.0
N5   N   0.095023970180925   0.750340259428789   0.864347090146985   1.0
N6   N   0.226820034797292   0.929742820306849   0.125071294023421   1.0
H7   H   0.215141569959194   0.636212973189700   0.870937740202343   1.0
H8   H   0.356449893229545   0.828704049245161   0.147482485759049   1.0
H9   H   0.980631788876636   0.743545832290259   0.758718428243299   1.0
H10   H   0.206726856758493   0.050820840839812   0.218057240950401   1.0
H11   H   0.950921158787047   0.019870400252152   0.972222896861290   1.0
C12   C   0.084881387733020   0.905009835505695   0.986462122012796   1.0




# HOIP entry ID:                    0392
# Khazana ID:                       2242
# Organic cation source:            T.D.Huan et al., Phys. Rev. B 93,094105(2016)
# Label:                            Formamidinium Germanium Iodide
# Material class:                   Hybrid organic-inorganic perovskite ( MC_ino )
# Geometry class:                   Bulk crystalline materials ( GC_cry )
# Organic cation chemical formula:  HC(NH2)2
# Number of atom types:             5
# Total number of atoms:            12
# Atom types:                       C H N  Ge I
# Number of each atom:              1 5 2  1 3
# Bandgap, HSE06 (eV):              1.9667
# Bandgap, GGA (eV):                1.419
# Kpoint for VBM:                   0.5, 0.5, 0.5
# Kpoint for CBM:                   0.5, 0.5, 0.5
# Dielectric constant, electronic:  5.1645
# Dielectric constant, ionic:       6.5949
# Dielectric constant, total:       11.7594
# Refractive index:                 2.2725
# Atomization energy (eV/atom):     -4.261
# Relative energy1 (eV/atom):       0.2123
# Relative energy2 (eV/atom):       0.3349
# Volume of the unit cell (A^3):    246.6
# Density (g/cm^3):                 3.3561
# Tool:                             VASP
# Pseudopotential:                  PAW
# Note:                             ENCUT=400eV, k-spacing_relax=0.20/Angstrom, k-spacing_bandgap=0.15/Angstrom
# Created by:                       C.Kim, T.D.Huan, S.Krishnan, R. Ramprasad