data_1
_audit_creation_method   'Generated by vasp2cif'
_cell_length_a    6.8802546302
_cell_length_b    6.04120798322
_cell_length_c    6.04260166356
_cell_angle_alpha    93.4022586406
_cell_angle_beta    89.5676735276
_cell_angle_gamma    90.5434832646

_symmetry_space_group_name_H-M    'P 1'
loop_
_atom_site_label
_atom_site_type_symbol
_atom_site_fract_x
_atom_site_fract_y
_atom_site_fract_z
_atom_site_occupancy
Ge1   Ge   0.420583454401779   0.389033739770831   0.611296488624319   1.0
I2   I   0.513623706053359   0.859798621153288   0.650219806698907   1.0
I3   I   0.513490933551509   0.350889631064710   0.141253948711608   1.0
I4   I   0.010768204338944   0.400510450780317   0.599743243193110   1.0
N5   N   0.175057508410788   0.852169671328511   0.146429681782479   1.0
N6   N   0.837248938976209   0.841231356753454   0.160949912270944   1.0
H7   H   0.191779718281751   0.737821102808027   0.261618753618997   1.0
H8   H   0.830649370839673   0.726110494897462   0.277248834510956   1.0
H9   H   0.296628853966098   0.917404522403189   0.078151529269661   1.0
H10   H   0.710108075958132   0.899281050280756   0.104085952557405   1.0
H11   H   0.996756872064026   0.039308238528449   0.959000926472825   1.0
C12   C   0.002672326828368   0.916401075482405   0.083200905289324   1.0




# HOIP entry ID:                    0393
# Khazana ID:                       2243
# Organic cation source:            T.D.Huan et al., Phys. Rev. B 93,094105(2016)
# Label:                            Formamidinium Germanium Iodide
# Material class:                   Hybrid organic-inorganic perovskite ( MC_ino )
# Geometry class:                   Bulk crystalline materials ( GC_cry )
# Organic cation chemical formula:  HC(NH2)2
# Number of atom types:             5
# Total number of atoms:            12
# Atom types:                       C H N  Ge I
# Number of each atom:              1 5 2  1 3
# Bandgap, HSE06 (eV):              2.0329
# Bandgap, GGA (eV):                1.4596
# Kpoint for VBM:                   0, 0.5, 0.5
# Kpoint for CBM:                   0.5, 0.5, 0.4474
# Dielectric constant, electronic:  5.1897
# Dielectric constant, ionic:       9.454
# Dielectric constant, total:       14.6436
# Refractive index:                 2.2781
# Atomization energy (eV/atom):     -4.2539
# Relative energy1 (eV/atom):       0.2194
# Relative energy2 (eV/atom):       0.3419
# Volume of the unit cell (A^3):    250.7
# Density (g/cm^3):                 3.3012
# Tool:                             VASP
# Pseudopotential:                  PAW
# Note:                             ENCUT=400eV, k-spacing_relax=0.20/Angstrom, k-spacing_bandgap=0.15/Angstrom
# Created by:                       C.Kim, T.D.Huan, S.Krishnan, R. Ramprasad