data_1
_audit_creation_method   'Generated by vasp2cif'
_cell_length_a    6.24784837329
_cell_length_b    6.44567283708
_cell_length_c    6.43789902934
_cell_angle_alpha    99.6636652587
_cell_angle_beta    95.844460745
_cell_angle_gamma    79.067012865

_symmetry_space_group_name_H-M    'P 1'
loop_
_atom_site_label
_atom_site_type_symbol
_atom_site_fract_x
_atom_site_fract_y
_atom_site_fract_z
_atom_site_occupancy
Ge1   Ge   0.367836776578209   0.516659760435296   0.495976628785449   1.0
I2   I   0.549972226609484   0.938834777728502   0.284346323047906   1.0
I3   I   0.471432619862810   0.356271658025093   0.878426981069985   1.0
I4   I   0.970702552873227   0.367035860201064   0.411094961232905   1.0
N5   N   0.900355872980654   0.713777612392668   0.959027119846660   1.0
N6   N   0.197261910842826   0.829038586281413   0.670362845764885   1.0
H7   H   0.097418892738375   0.787811711753079   0.769556900661833   1.0
H8   H   0.102453714972604   0.926890615500199   0.573303234475958   1.0
H9   H   0.845848006671311   0.575319580185003   0.969231237489993   1.0
H10   H   0.303979543212705   0.916861304642929   0.760111118875130   1.0
H11   H   0.863209285915275   0.038865275082713   0.062496039549707   1.0
C12   C   0.815868596742533   0.885163257771936   0.064076609199631   1.0




# HOIP entry ID:                    0394
# Khazana ID:                       2244
# Organic cation source:            T.D.Huan et al., Phys. Rev. B 93,094105(2016)
# Label:                            Formamidinium Germanium Iodide
# Material class:                   Hybrid organic-inorganic perovskite ( MC_ino )
# Geometry class:                   Bulk crystalline materials ( GC_cry )
# Organic cation chemical formula:  HC(NH2)2
# Number of atom types:             5
# Total number of atoms:            12
# Atom types:                       C H N  Ge I
# Number of each atom:              1 5 2  1 3
# Bandgap, HSE06 (eV):              3.4302
# Bandgap, GGA (eV):                2.5397
# Kpoint for VBM:                   0.5, 0, 0.5
# Kpoint for CBM:                   0.5, 0.3333, 0.5
# Dielectric constant, electronic:  4.1864
# Dielectric constant, ionic:       2.2122
# Dielectric constant, total:       6.3986
# Refractive index:                 2.0461
# Atomization energy (eV/atom):     -4.1321
# Relative energy1 (eV/atom):       0.3412
# Relative energy2 (eV/atom):       0.4638
# Volume of the unit cell (A^3):    250.29
# Density (g/cm^3):                 3.3066
# Tool:                             VASP
# Pseudopotential:                  PAW
# Note:                             ENCUT=400eV, k-spacing_relax=0.20/Angstrom, k-spacing_bandgap=0.15/Angstrom
# Created by:                       C.Kim, T.D.Huan, S.Krishnan, R. Ramprasad