data_1
_audit_creation_method   'Generated by vasp2cif'
_cell_length_a    6.79657754049
_cell_length_b    6.74930275515
_cell_length_c    6.63215201333
_cell_angle_alpha    89.692162316
_cell_angle_beta    91.521098304
_cell_angle_gamma    89.6003696623

_symmetry_space_group_name_H-M    'P 1'
loop_
_atom_site_label
_atom_site_type_symbol
_atom_site_fract_x
_atom_site_fract_y
_atom_site_fract_z
_atom_site_occupancy
C1   C   0.316281965405182   0.361257217361498   0.479703476848655   1.0
C2   C   0.590163005308021   0.522395807548207   0.299512625881768   1.0
C3   C   0.587422396238331   0.524212341533250   0.672797860327321   1.0
C4   C   0.345518290053455   0.726890764425946   0.477389912770192   1.0
H5   H   0.450528972331121   0.848244551191819   0.479891625950430   1.0
H6   H   0.254141813629467   0.731699412617374   0.340443430818347   1.0
H7   H   0.226196648783834   0.370668117047579   0.341833127816230   1.0
H8   H   0.496554476760089   0.531729458114924   0.163775152469505   1.0
H9   H   0.491875463772736   0.535202864885129   0.801727896264055   1.0
H10   H   0.688301547821247   0.648396855585084   0.669259694498727   1.0
H11   H   0.691633347769617   0.646443409510418   0.306740704278198   1.0
H12   H   0.255098771437048   0.730802392402794   0.610011599024133   1.0
H13   H   0.667924087750649   0.384213274537508   0.675690394793449   1.0
H14   H   0.400415304866492   0.223241174283714   0.485158309560695   1.0
H15   H   0.670788563027372   0.382243238686257   0.305125401349258   1.0
H16   H   0.225319440582247   0.374228664566658   0.611629379501757   1.0
I17   I   0.408584045045650   0.045403386536464   0.978704980038657   1.0
I18   I   0.023749797417707   0.570382831551463   0.981799092350421   1.0
I19   I   0.897722767758928   0.028026428684505   0.530057511890625   1.0
N20   N   0.459757533299303   0.532891807790470   0.481691279093845   1.0
Ge21   Ge   0.997051760941481   0.990176001138963   0.957706544472650   1.0




# HOIP entry ID:                    0395
# Khazana ID:                       2245
# Organic cation source:            B.Saparov et al., Chem. Rev. 116, 4558 (2016)
# Label:                            Tetramethylammonium Germanium Iodide
# Material class:                   Hybrid organic-inorganic perovskite ( MC_ino )
# Geometry class:                   Bulk crystalline materials ( GC_cry )
# Organic cation chemical formula:  (CH3)4N
# Number of atom types:             5
# Total number of atoms:            21
# Atom types:                       C H N  Ge I
# Number of each atom:              4 12 1  1 3
# Bandgap, HSE06 (eV):              2.6172
# Bandgap, GGA (eV):                1.9256
# Kpoint for VBM:                   0.5, 0.5, 0.5
# Kpoint for CBM:                   0.5, 0.5, 0.5
# Dielectric constant, electronic:  3.9553
# Dielectric constant, ionic:       1.9168
# Dielectric constant, total:       5.8721
# Refractive index:                 1.9888
# Atomization energy (eV/atom):     -4.3961
# Relative energy1 (eV/atom):       0.1403
# Relative energy2 (eV/atom):       0.1941
# Volume of the unit cell (A^3):    304.11
# Density (g/cm^3):                 2.8802
# Tool:                             VASP
# Pseudopotential:                  PAW
# Note:                             ENCUT=400eV, k-spacing_relax=0.20/Angstrom, k-spacing_bandgap=0.15/Angstrom
# Created by:                       C.Kim, T.D.Huan, S.Krishnan, R. Ramprasad