data_1
_audit_creation_method   'Generated by vasp2cif'
_cell_length_a    6.23717508738
_cell_length_b    6.07474862519
_cell_length_c    6.19787309911
_cell_angle_alpha    89.1125976692
_cell_angle_beta    84.2878963041
_cell_angle_gamma    88.4710864547

_symmetry_space_group_name_H-M    'P 1'
loop_
_atom_site_label
_atom_site_type_symbol
_atom_site_fract_x
_atom_site_fract_y
_atom_site_fract_z
_atom_site_occupancy
I1   I   0.950294472493177   0.992199293135670   0.549885062445860   1.0
I2   I   0.477960141377238   0.984654752290723   0.043696355419200   1.0
I3   I   0.990747078549916   0.492006436979452   0.038894106727504   1.0
H4   H   0.272472869117834   0.561584720623301   0.564771690723965   1.0
H5   H   0.485612053011245   0.651846017998921   0.413526689435692   1.0
H6   H   0.498128692881323   0.355983922479275   0.779033059004625   1.0
H7   H   0.711448955937229   0.452212450754367   0.628987201461371   1.0
H8   H   0.551019765147117   0.627367658482825   0.786324715806089   1.0
Ge9   Ge   0.017836365944532   0.025419999081521   0.097581215147208   1.0
N10   N   0.425202826061017   0.517413832691140   0.499664096255856   1.0
N11   N   0.554006779479330   0.490340915482719   0.686245807572817   1.0




# HOIP entry ID:                    0397
# Khazana ID:                       2247
# Organic cation source:            B.Saparov et al., Chem. Rev. 116, 4558 (2016)
# Label:                            Hydrazinium Germanium Iodide
# Material class:                   Hybrid organic-inorganic perovskite ( MC_ino )
# Geometry class:                   Bulk crystalline materials ( GC_cry )
# Organic cation chemical formula:  NH2NH3
# Number of atom types:             4
# Total number of atoms:            11
# Atom types:                        H N  Ge I
# Number of each atom:               5 2  1 3
# Bandgap, HSE06 (eV):              1.8829
# Bandgap, GGA (eV):                1.3701
# Kpoint for VBM:                   0.5, 0.5, 0.5
# Kpoint for CBM:                   0.5, 0.5, 0.4474
# Dielectric constant, electronic:  5.6271
# Dielectric constant, ionic:       9.8766
# Dielectric constant, total:       15.5037
# Refractive index:                 2.3722
# Atomization energy (eV/atom):     -3.774
# Relative energy1 (eV/atom):       0.7594
# Relative energy2 (eV/atom):       0.8931
# Volume of the unit cell (A^3):    233.56
# Density (g/cm^3):                 3.4581
# Tool:                             VASP
# Pseudopotential:                  PAW
# Note:                             ENCUT=400eV, k-spacing_relax=0.20/Angstrom, k-spacing_bandgap=0.15/Angstrom
# Created by:                       C.Kim, T.D.Huan, S.Krishnan, R. Ramprasad