data_1
_audit_creation_method   'Generated by vasp2cif'
_cell_length_a    4.28216974695
_cell_length_b    6.52967557064
_cell_length_c    8.29517575006
_cell_angle_alpha    96.1571695663
_cell_angle_beta    107.980531938
_cell_angle_gamma    88.0857626725

_symmetry_space_group_name_H-M    'P 1'
loop_
_atom_site_label
_atom_site_type_symbol
_atom_site_fract_x
_atom_site_fract_y
_atom_site_fract_z
_atom_site_occupancy
I1   I   0.479467503351302   0.027501220328247   0.430294143673677   1.0
I2   I   0.148931041519766   0.976341678598331   0.871589611232380   1.0
I3   I   0.820115118313225   0.515196290590573   0.135869587785493   1.0
H4   H   0.309809444209016   0.525780951696646   0.482548658804383   1.0
H5   H   0.392993842201783   0.708956853683794   0.643517182828056   1.0
H6   H   0.978395340671483   0.494420300596936   0.665485883748040   1.0
H7   H   0.229531146211848   0.290506328155686   0.655632331394187   1.0
H8   H   0.334679497417476   0.468281943265801   0.824677829616725   1.0
Ge9   Ge   0.813217503314995   0.954028090648094   0.149985333736055   1.0
N10   N   0.423204207899303   0.554558639731020   0.611715585039782   1.0
N11   N   0.222815354889725   0.446667702704829   0.693523852141190   1.0




# HOIP entry ID:                    0398
# Khazana ID:                       2248
# Organic cation source:            B.Saparov et al., Chem. Rev. 116, 4558 (2016)
# Label:                            Hydrazinium Germanium Iodide
# Material class:                   Hybrid organic-inorganic perovskite ( MC_ino )
# Geometry class:                   Bulk crystalline materials ( GC_cry )
# Organic cation chemical formula:  NH2NH3
# Number of atom types:             4
# Total number of atoms:            11
# Atom types:                        H N  Ge I
# Number of each atom:               5 2  1 3
# Bandgap, HSE06 (eV):              2.5166
# Bandgap, GGA (eV):                1.8221
# Kpoint for VBM:                   0, 0, 0
# Kpoint for CBM:                   0.5, 0.5, 0.5
# Dielectric constant, electronic:  5.3639
# Dielectric constant, ionic:       19.7291
# Dielectric constant, total:       25.0929
# Refractive index:                 2.316
# Atomization energy (eV/atom):     -3.789
# Relative energy1 (eV/atom):       0.7444
# Relative energy2 (eV/atom):       0.8781
# Volume of the unit cell (A^3):    219.34
# Density (g/cm^3):                 3.6823
# Tool:                             VASP
# Pseudopotential:                  PAW
# Note:                             ENCUT=400eV, k-spacing_relax=0.20/Angstrom, k-spacing_bandgap=0.15/Angstrom
# Created by:                       C.Kim, T.D.Huan, S.Krishnan, R. Ramprasad