data_1
_audit_creation_method   'Generated by vasp2cif'
_cell_length_a    8.41407148941
_cell_length_b    6.0850439732
_cell_length_c    6.13637269636
_cell_angle_alpha    89.698934748
_cell_angle_beta    47.9736830846
_cell_angle_gamma    93.3767597443

_symmetry_space_group_name_H-M    'P 1'
loop_
_atom_site_label
_atom_site_type_symbol
_atom_site_fract_x
_atom_site_fract_y
_atom_site_fract_z
_atom_site_occupancy
I1   I   0.547243583820844   0.999611179798848   0.503830680904208   1.0
I2   I   0.042302291199313   0.988835583795151   0.484691389976661   1.0
I3   I   0.024856526707247   0.496352504840885   0.997468754236003   1.0
H4   H   0.538272280429581   0.667885516791216   0.141175028664001   1.0
H5   H   0.424028402574947   0.641543608201189   0.004066938394423   1.0
H6   H   0.750230596836346   0.385292280105858   0.875561567001348   1.0
H7   H   0.625343559413068   0.334677917138727   0.750946353455760   1.0
H8   H   0.786575548345475   0.569228309436028   0.638647477445367   1.0
Ge9   Ge   0.094835711900977   0.966090478758865   0.893580448771239   1.0
N10   N   0.482595735740489   0.554407577403325   0.077734353832618   1.0
N11   N   0.674195763031655   0.457225043729970   0.816617007318420   1.0




# HOIP entry ID:                    0399
# Khazana ID:                       2249
# Organic cation source:            B.Saparov et al., Chem. Rev. 116, 4558 (2016)
# Label:                            Hydrazinium Germanium Iodide
# Material class:                   Hybrid organic-inorganic perovskite ( MC_ino )
# Geometry class:                   Bulk crystalline materials ( GC_cry )
# Organic cation chemical formula:  NH2NH3
# Number of atom types:             4
# Total number of atoms:            11
# Atom types:                        H N  Ge I
# Number of each atom:               5 2  1 3
# Bandgap, HSE06 (eV):              1.9235
# Bandgap, GGA (eV):                1.4705
# Kpoint for VBM:                   0.5, 0.5, 0.5
# Kpoint for CBM:                   -0.125, 0.4167, 0.45
# Dielectric constant, electronic:  5.7439
# Dielectric constant, ionic:       11.3028
# Dielectric constant, total:       17.0467
# Refractive index:                 2.3966
# Atomization energy (eV/atom):     -3.7734
# Relative energy1 (eV/atom):       0.76
# Relative energy2 (eV/atom):       0.8937
# Volume of the unit cell (A^3):    232.56
# Density (g/cm^3):                 3.4729
# Tool:                             VASP
# Pseudopotential:                  PAW
# Note:                             ENCUT=400eV, k-spacing_relax=0.20/Angstrom, k-spacing_bandgap=0.15/Angstrom
# Created by:                       C.Kim, T.D.Huan, S.Krishnan, R. Ramprasad