data_1
_audit_creation_method   'Generated by vasp2cif'
_cell_length_a    4.25270846335
_cell_length_b    6.65475920178
_cell_length_c    8.30455407831
_cell_angle_alpha    83.9300389183
_cell_angle_beta    105.74096209
_cell_angle_gamma    103.951945589

_symmetry_space_group_name_H-M    'P 1'
loop_
_atom_site_label
_atom_site_type_symbol
_atom_site_fract_x
_atom_site_fract_y
_atom_site_fract_z
_atom_site_occupancy
I1   I   0.304944920223377   0.011827741183431   0.590311427062659   1.0
I2   I   0.594036861917473   0.990120349533996   0.154832677843991   1.0
I3   I   0.770422795067397   0.538885158250267   0.864818940226058   1.0
H4   H   0.255420276878212   0.463917975825588   0.498267968914988   1.0
H5   H   0.265774877604855   0.680446578564755   0.379856384362803   1.0
H6   H   0.596770170971872   0.480903391031298   0.308795419412732   1.0
H7   H   0.258207697793175   0.281325997885816   0.276472189981213   1.0
H8   H   0.249964099022762   0.494969280450896   0.150458612429276   1.0
Ge9   Ge   0.938314248507986   0.973349927007163   0.863343977293454   1.0
N10   N   0.169242820179669   0.523005895310725   0.379074108064309   1.0
N11   N   0.335511231833045   0.441287704956046   0.273228294408511   1.0




# HOIP entry ID:                    0400
# Khazana ID:                       2250
# Organic cation source:            B.Saparov et al., Chem. Rev. 116, 4558 (2016)
# Label:                            Hydrazinium Germanium Iodide
# Material class:                   Hybrid organic-inorganic perovskite ( MC_ino )
# Geometry class:                   Bulk crystalline materials ( GC_cry )
# Organic cation chemical formula:  NH2NH3
# Number of atom types:             4
# Total number of atoms:            11
# Atom types:                        H N  Ge I
# Number of each atom:               5 2  1 3
# Bandgap, HSE06 (eV):              2.732
# Bandgap, GGA (eV):                1.9893
# Kpoint for VBM:                   0.0556, 0, 0.5
# Kpoint for CBM:                   0, 0.5, 0
# Dielectric constant, electronic:  5.2046
# Dielectric constant, ionic:       14.8907
# Dielectric constant, total:       20.0952
# Refractive index:                 2.2814
# Atomization energy (eV/atom):     -3.7877
# Relative energy1 (eV/atom):       0.7456
# Relative energy2 (eV/atom):       0.8794
# Volume of the unit cell (A^3):    219.33
# Density (g/cm^3):                 3.6824
# Tool:                             VASP
# Pseudopotential:                  PAW
# Note:                             ENCUT=400eV, k-spacing_relax=0.20/Angstrom, k-spacing_bandgap=0.15/Angstrom
# Created by:                       C.Kim, T.D.Huan, S.Krishnan, R. Ramprasad