data_1
_audit_creation_method   'Generated by vasp2cif'
_cell_length_a    8.13443326358
_cell_length_b    6.68392519905
_cell_length_c    4.42767183045
_cell_angle_alpha    102.004876581
_cell_angle_beta    76.1688750033
_cell_angle_gamma    101.618176833

_symmetry_space_group_name_H-M    'P 1'
loop_
_atom_site_label
_atom_site_type_symbol
_atom_site_fract_x
_atom_site_fract_y
_atom_site_fract_z
_atom_site_occupancy
I1   I   0.421069013937398   0.080221185547316   0.328832911561428   1.0
I2   I   0.852584469055437   0.946434638358362   0.534297019549328   1.0
I3   I   0.098772571175608   0.467060522765259   0.082663291645815   1.0
H4   H   0.498571629423928   0.480457355308367   0.136355441994049   1.0
H5   H   0.623494621174252   0.704481184556819   0.078828001099637   1.0
H6   H   0.790739545252578   0.425118405111874   0.927691832432480   1.0
H7   H   0.658316166385163   0.313430424366871   0.674724860051562   1.0
H8   H   0.786913530677964   0.540857902403253   0.629407466098833   1.0
Ge9   Ge   0.136691172587206   0.048156150372449   0.911895202371298   1.0
N10   N   0.568709428054966   0.565744727839409   0.966837243586532   1.0
N11   N   0.710457852275439   0.453177503370007   0.794446729609135   1.0




# HOIP entry ID:                    0401
# Khazana ID:                       2251
# Organic cation source:            B.Saparov et al., Chem. Rev. 116, 4558 (2016)
# Label:                            Hydrazinium Germanium Iodide
# Material class:                   Hybrid organic-inorganic perovskite ( MC_ino )
# Geometry class:                   Bulk crystalline materials ( GC_cry )
# Organic cation chemical formula:  NH2NH3
# Number of atom types:             4
# Total number of atoms:            11
# Atom types:                        H N  Ge I
# Number of each atom:               5 2  1 3
# Bandgap, HSE06 (eV):              3.1144
# Bandgap, GGA (eV):                2.2479
# Kpoint for VBM:                   0.5, 0.5, 0
# Kpoint for CBM:                   0.5, 0.5, 0
# Dielectric constant, electronic:  4.9557
# Dielectric constant, ionic:       19.0582
# Dielectric constant, total:       24.0139
# Refractive index:                 2.2261
# Atomization energy (eV/atom):     -3.7731
# Relative energy1 (eV/atom):       0.7602
# Relative energy2 (eV/atom):       0.8939
# Volume of the unit cell (A^3):    225.71
# Density (g/cm^3):                 3.5783
# Tool:                             VASP
# Pseudopotential:                  PAW
# Note:                             ENCUT=400eV, k-spacing_relax=0.20/Angstrom, k-spacing_bandgap=0.15/Angstrom
# Created by:                       C.Kim, T.D.Huan, S.Krishnan, R. Ramprasad