data_1
_audit_creation_method   'Generated by vasp2cif'
_cell_length_a    8.00286856779
_cell_length_b    6.5341665421
_cell_length_c    4.50832488906
_cell_angle_alpha    87.9615617616
_cell_angle_beta    74.0873819359
_cell_angle_gamma    88.5736139863

_symmetry_space_group_name_H-M    'P 1'
loop_
_atom_site_label
_atom_site_type_symbol
_atom_site_fract_x
_atom_site_fract_y
_atom_site_fract_z
_atom_site_occupancy
I1   I   0.536068460524305   0.067560648502884   0.654737675300190   1.0
I2   I   0.094117694325384   0.935081772980524   0.398448771912626   1.0
I3   I   0.914311345156896   0.440885561626324   0.974339814576354   1.0
H4   H   0.521190897711278   0.484036893340580   0.931750298015203   1.0
H5   H   0.389954238491903   0.688243480011764   0.014891700876802   1.0
H6   H   0.228622875031029   0.373424374211254   0.133692295624435   1.0
H7   H   0.352824127586466   0.312045129473638   0.374810571195070   1.0
H8   H   0.214726985376643   0.514915312449098   0.439263864292194   1.0
Ge9   Ge   0.828648152274972   0.022815183870669   0.064250844783956   1.0
N10   N   0.444344804184915   0.567226413490921   0.108665657961630   1.0
N11   N   0.301050419336178   0.432495230042356   0.269398505461652   1.0




# HOIP entry ID:                    0402
# Khazana ID:                       2252
# Organic cation source:            B.Saparov et al., Chem. Rev. 116, 4558 (2016)
# Label:                            Hydrazinium Germanium Iodide
# Material class:                   Hybrid organic-inorganic perovskite ( MC_ino )
# Geometry class:                   Bulk crystalline materials ( GC_cry )
# Organic cation chemical formula:  NH2NH3
# Number of atom types:             4
# Total number of atoms:            11
# Atom types:                        H N  Ge I
# Number of each atom:               5 2  1 3
# Bandgap, HSE06 (eV):              3.2116
# Bandgap, GGA (eV):                2.2632
# Kpoint for VBM:                   0, 0, 0
# Kpoint for CBM:                   0.4211, 0.4211, 0
# Dielectric constant, electronic:  4.9527
# Dielectric constant, ionic:       11.9487
# Dielectric constant, total:       16.9014
# Refractive index:                 2.2255
# Atomization energy (eV/atom):     -3.7728
# Relative energy1 (eV/atom):       0.7605
# Relative energy2 (eV/atom):       0.8943
# Volume of the unit cell (A^3):    226.54
# Density (g/cm^3):                 3.5652
# Tool:                             VASP
# Pseudopotential:                  PAW
# Note:                             ENCUT=400eV, k-spacing_relax=0.20/Angstrom, k-spacing_bandgap=0.15/Angstrom
# Created by:                       C.Kim, T.D.Huan, S.Krishnan, R. Ramprasad