data_1
_audit_creation_method   'Generated by vasp2cif'
_cell_length_a    8.44627475041
_cell_length_b    4.25657171824
_cell_length_c    6.29832268105
_cell_angle_alpha    90.8490479877
_cell_angle_beta    89.5540958184
_cell_angle_gamma    74.116420861

_symmetry_space_group_name_H-M    'P 1'
loop_
_atom_site_label
_atom_site_type_symbol
_atom_site_fract_x
_atom_site_fract_y
_atom_site_fract_z
_atom_site_occupancy
I1   I   0.422788438083785   0.043730406343357   0.009776492157585   1.0
I2   I   0.113883012682983   0.744990174711141   0.475985235495152   1.0
I3   I   0.865157074923346   0.336952984743206   0.982028488931093   1.0
H4   H   0.527007998414405   0.526598898908375   0.670570816233280   1.0
H5   H   0.477432510625547   0.557694233931748   0.418308126093038   1.0
H6   H   0.782651905530713   0.594571638739531   0.597866255845986   1.0
H7   H   0.744681752785262   0.602334509308193   0.335616216568788   1.0
H8   H   0.639560426121371   0.916448663350018   0.496934420780008   1.0
Ge9   Ge   0.145103027199568   0.690295738593910   0.030908711284582   1.0
N10   N   0.573518980374502   0.466632933649350   0.519411135668761   1.0
N11   N   0.690744873258517   0.664039817721203   0.485544100941652   1.0




# HOIP entry ID:                    0403
# Khazana ID:                       2253
# Organic cation source:            B.Saparov et al., Chem. Rev. 116, 4558 (2016)
# Label:                            Hydrazinium Germanium Iodide
# Material class:                   Hybrid organic-inorganic perovskite ( MC_ino )
# Geometry class:                   Bulk crystalline materials ( GC_cry )
# Organic cation chemical formula:  NH2NH3
# Number of atom types:             4
# Total number of atoms:            11
# Atom types:                        H N  Ge I
# Number of each atom:               5 2  1 3
# Bandgap, HSE06 (eV):              2.7214
# Bandgap, GGA (eV):                1.9327
# Kpoint for VBM:                   0.5, 0, 0
# Kpoint for CBM:                   0.5, 0.5, 0.5
# Dielectric constant, electronic:  5.4069
# Dielectric constant, ionic:       18.0409
# Dielectric constant, total:       23.4477
# Refractive index:                 2.3253
# Atomization energy (eV/atom):     -3.792
# Relative energy1 (eV/atom):       0.7413
# Relative energy2 (eV/atom):       0.875
# Volume of the unit cell (A^3):    217.75
# Density (g/cm^3):                 3.7091
# Tool:                             VASP
# Pseudopotential:                  PAW
# Note:                             ENCUT=400eV, k-spacing_relax=0.20/Angstrom, k-spacing_bandgap=0.15/Angstrom
# Created by:                       C.Kim, T.D.Huan, S.Krishnan, R. Ramprasad