data_1
_audit_creation_method   'Generated by vasp2cif'
_cell_length_a    8.14686883531
_cell_length_b    4.28235927996
_cell_length_c    6.51347097278
_cell_angle_alpha    89.6851982296
_cell_angle_beta    94.8428616594
_cell_angle_gamma    76.373731152

_symmetry_space_group_name_H-M    'P 1'
loop_
_atom_site_label
_atom_site_type_symbol
_atom_site_fract_x
_atom_site_fract_y
_atom_site_fract_z
_atom_site_occupancy
I1   I   0.435317935774016   0.155932807438141   0.025126287653279   1.0
I2   I   0.117743336721460   0.784546263667814   0.523899789465602   1.0
I3   I   0.876686552132028   0.406212119022008   0.993848962150039   1.0
H4   H   0.469484008724414   0.786785249199532   0.496284913714227   1.0
H5   H   0.601533843858945   0.741258672342674   0.707390005960441   1.0
H6   H   0.647059190741693   0.264310032437315   0.502090646781127   1.0
H7   H   0.701937490786037   0.489861828620320   0.316622400381121   1.0
H8   H   0.815767622473224   0.426824232626572   0.544669737602106   1.0
Ge9   Ge   0.155467165739367   0.769304312279303   0.963255156770913   1.0
N10   N   0.593817171098898   0.771949678820491   0.549790433305901   1.0
N11   N   0.693555681949874   0.466354803545805   0.474031666215311   1.0




# HOIP entry ID:                    0404
# Khazana ID:                       2254
# Organic cation source:            B.Saparov et al., Chem. Rev. 116, 4558 (2016)
# Label:                            Hydrazinium Germanium Iodide
# Material class:                   Hybrid organic-inorganic perovskite ( MC_ino )
# Geometry class:                   Bulk crystalline materials ( GC_cry )
# Organic cation chemical formula:  NH2NH3
# Number of atom types:             4
# Total number of atoms:            11
# Atom types:                        H N  Ge I
# Number of each atom:               5 2  1 3
# Bandgap, HSE06 (eV):              2.5878
# Bandgap, GGA (eV):                1.9062
# Kpoint for VBM:                   0.5, 0, 0.5
# Kpoint for CBM:                   0.1, 0.5, 0.5
# Dielectric constant, electronic:  5.3096
# Dielectric constant, ionic:       32.6614
# Dielectric constant, total:       37.971
# Refractive index:                 2.3043
# Atomization energy (eV/atom):     -3.7872
# Relative energy1 (eV/atom):       0.7461
# Relative energy2 (eV/atom):       0.8798
# Volume of the unit cell (A^3):    219.98
# Density (g/cm^3):                 3.6715
# Tool:                             VASP
# Pseudopotential:                  PAW
# Note:                             ENCUT=400eV, k-spacing_relax=0.20/Angstrom, k-spacing_bandgap=0.15/Angstrom
# Created by:                       C.Kim, T.D.Huan, S.Krishnan, R. Ramprasad