data_1
_audit_creation_method   'Generated by vasp2cif'
_cell_length_a    8.10075985322
_cell_length_b    6.55868346406
_cell_length_c    4.64926816308
_cell_angle_alpha    91.3592912651
_cell_angle_beta    105.672661702
_cell_angle_gamma    71.4029104443

_symmetry_space_group_name_H-M    'P 1'
loop_
_atom_site_label
_atom_site_type_symbol
_atom_site_fract_x
_atom_site_fract_y
_atom_site_fract_z
_atom_site_occupancy
I1   I   0.506799545343419   0.992986771814522   0.128462932051626   1.0
I2   I   0.065925893829672   0.009378999423653   0.410588401110331   1.0
I3   I   0.925694350393968   0.547705670418551   0.846458227345018   1.0
H4   H   0.525394507999636   0.529312664664729   0.487131740054110   1.0
H5   H   0.454690628507826   0.621008838042300   0.778416370032957   1.0
H6   H   0.206691883021833   0.582844565771062   0.417249122553848   1.0
H7   H   0.335309208490671   0.325743119938714   0.375476231902574   1.0
H8   H   0.273528217023454   0.385564035751976   0.690328539913544   1.0
Ge9   Ge   0.801856703311145   0.996766399108040   0.845761150180763   1.0
N10   N   0.485114227777856   0.485406939871098   0.660832728647648   1.0
N11   N   0.312234834300519   0.445681995195372   0.524644556207640   1.0




# HOIP entry ID:                    0405
# Khazana ID:                       2255
# Organic cation source:            B.Saparov et al., Chem. Rev. 116, 4558 (2016)
# Label:                            Hydrazinium Germanium Iodide
# Material class:                   Hybrid organic-inorganic perovskite ( MC_ino )
# Geometry class:                   Bulk crystalline materials ( GC_cry )
# Organic cation chemical formula:  NH2NH3
# Number of atom types:             4
# Total number of atoms:            11
# Atom types:                        H N  Ge I
# Number of each atom:               5 2  1 3
# Bandgap, HSE06 (eV):              3.2754
# Bandgap, GGA (eV):                2.3492
# Kpoint for VBM:                   0, 0, 0
# Kpoint for CBM:                   0.4, 0.25, 0
# Dielectric constant, electronic:  4.9204
# Dielectric constant, ionic:       8.4055
# Dielectric constant, total:       13.3258
# Refractive index:                 2.2182
# Atomization energy (eV/atom):     -3.7715
# Relative energy1 (eV/atom):       0.7619
# Relative energy2 (eV/atom):       0.8956
# Volume of the unit cell (A^3):    224.89
# Density (g/cm^3):                 3.5914
# Tool:                             VASP
# Pseudopotential:                  PAW
# Note:                             ENCUT=400eV, k-spacing_relax=0.20/Angstrom, k-spacing_bandgap=0.15/Angstrom
# Created by:                       C.Kim, T.D.Huan, S.Krishnan, R. Ramprasad