data_1
_audit_creation_method   'Generated by vasp2cif'
_cell_length_a    8.41508297605
_cell_length_b    4.23999142885
_cell_length_c    6.25043958556
_cell_angle_alpha    90.712458766
_cell_angle_beta    90.7421526073
_cell_angle_gamma    76.8071828189

_symmetry_space_group_name_H-M    'P 1'
loop_
_atom_site_label
_atom_site_type_symbol
_atom_site_fract_x
_atom_site_fract_y
_atom_site_fract_z
_atom_site_occupancy
I1   I   0.207616046805235   0.556397080700627   0.003237199702042   1.0
I2   I   0.946771494890626   0.202789649900048   0.492288911301323   1.0
I3   I   0.649907847002446   0.821752399357116   0.014973093361426   1.0
H4   H   0.564356064798247   0.463247148440210   0.650002065939987   1.0
H5   H   0.571159765681664   0.456050078104255   0.386876977570140   1.0
H6   H   0.297736435209338   0.774440124105162   0.637460668119083   1.0
H7   H   0.424261550961596   0.970585944684991   0.510746034627090   1.0
H8   H   0.305096371849238   0.766846520552292   0.368307991032445   1.0
Ge9   Ge   0.926359972026965   0.181036667285809   0.043882218528608   1.0
N10   N   0.495398248143545   0.452190398414359   0.514124496083433   1.0
N11   N   0.374476202631129   0.766353988455180   0.507470343734404   1.0




# HOIP entry ID:                    0406
# Khazana ID:                       2256
# Organic cation source:            B.Saparov et al., Chem. Rev. 116, 4558 (2016)
# Label:                            Hydrazinium Germanium Iodide
# Material class:                   Hybrid organic-inorganic perovskite ( MC_ino )
# Geometry class:                   Bulk crystalline materials ( GC_cry )
# Organic cation chemical formula:  NH2NH3
# Number of atom types:             4
# Total number of atoms:            11
# Atom types:                        H N  Ge I
# Number of each atom:               5 2  1 3
# Bandgap, HSE06 (eV):              2.6793
# Bandgap, GGA (eV):                1.8769
# Kpoint for VBM:                   0, 0, 0
# Kpoint for CBM:                   0, 0, 0.5
# Dielectric constant, electronic:  5.446
# Dielectric constant, ionic:       16.3364
# Dielectric constant, total:       21.7823
# Refractive index:                 2.3337
# Atomization energy (eV/atom):     -3.7925
# Relative energy1 (eV/atom):       0.7409
# Relative energy2 (eV/atom):       0.8746
# Volume of the unit cell (A^3):    217.1
# Density (g/cm^3):                 3.7203
# Tool:                             VASP
# Pseudopotential:                  PAW
# Note:                             ENCUT=400eV, k-spacing_relax=0.20/Angstrom, k-spacing_bandgap=0.15/Angstrom
# Created by:                       C.Kim, T.D.Huan, S.Krishnan, R. Ramprasad