data_1
_audit_creation_method   'Generated by vasp2cif'
_cell_length_a    6.53506228387
_cell_length_b    4.30286230017
_cell_length_c    8.13945645255
_cell_angle_alpha    103.774167118
_cell_angle_beta    85.7741376044
_cell_angle_gamma    85.0297279544

_symmetry_space_group_name_H-M    'P 1'
loop_
_atom_site_label
_atom_site_type_symbol
_atom_site_fract_x
_atom_site_fract_y
_atom_site_fract_z
_atom_site_occupancy
I1   I   0.023241243615388   0.576905032572270   0.732304252173364   1.0
I2   I   0.524438903227839   0.245566666407243   0.046393120721703   1.0
I3   I   0.993930255446308   0.832350612052942   0.291629548557168   1.0
H4   H   0.497265974372233   0.898231789635133   0.378826337798017   1.0
H5   H   0.307839882908127   0.997198084360413   0.533744771284972   1.0
H6   H   0.721832733559921   0.161774006717543   0.549428516354126   1.0
H7   H   0.511476439560106   0.426875896597444   0.562308450041229   1.0
H8   H   0.546089302128742   0.238800319890089   0.720956216299037   1.0
Ge9   Ge   0.963035322768420   0.189466633205797   0.019937344761821   1.0
N10   N   0.463657503134414   0.928541126439818   0.507491402590787   1.0
N11   N   0.565262439278499   0.211289832121423   0.589680039417743   1.0




# HOIP entry ID:                    0407
# Khazana ID:                       2257
# Organic cation source:            B.Saparov et al., Chem. Rev. 116, 4558 (2016)
# Label:                            Hydrazinium Germanium Iodide
# Material class:                   Hybrid organic-inorganic perovskite ( MC_ino )
# Geometry class:                   Bulk crystalline materials ( GC_cry )
# Organic cation chemical formula:  NH2NH3
# Number of atom types:             4
# Total number of atoms:            11
# Atom types:                        H N  Ge I
# Number of each atom:               5 2  1 3
# Bandgap, HSE06 (eV):              2.6347
# Bandgap, GGA (eV):                1.9006
# Kpoint for VBM:                   0.5, 0.0556, 0.5
# Kpoint for CBM:                   0.5, 0.5, 0.1053
# Dielectric constant, electronic:  5.2698
# Dielectric constant, ionic:       14.0269
# Dielectric constant, total:       19.2967
# Refractive index:                 2.2956
# Atomization energy (eV/atom):     -3.7903
# Relative energy1 (eV/atom):       0.743
# Relative energy2 (eV/atom):       0.8767
# Volume of the unit cell (A^3):    220.4
# Density (g/cm^3):                 3.6645
# Tool:                             VASP
# Pseudopotential:                  PAW
# Note:                             ENCUT=400eV, k-spacing_relax=0.20/Angstrom, k-spacing_bandgap=0.15/Angstrom
# Created by:                       C.Kim, T.D.Huan, S.Krishnan, R. Ramprasad