data_1
_audit_creation_method   'Generated by vasp2cif'
_cell_length_a    7.85998395979
_cell_length_b    7.01525006397
_cell_length_c    4.53063502125
_cell_angle_alpha    73.1895697889
_cell_angle_beta    106.04307412
_cell_angle_gamma    112.924194146

_symmetry_space_group_name_H-M    'P 1'
loop_
_atom_site_label
_atom_site_type_symbol
_atom_site_fract_x
_atom_site_fract_y
_atom_site_fract_z
_atom_site_occupancy
Ge1   Ge   0.812007324356387   0.041656203398816   0.628853841325004   1.0
I2   I   0.487696067608425   0.883084454504441   0.087342195674523   1.0
I3   I   0.105278679967277   0.094344858124615   0.280459545954201   1.0
I4   I   0.848137378479443   0.468089821902772   0.459341434006305   1.0
N5   N   0.453561183138049   0.430466779228851   0.784517024007997   1.0
H6   H   0.336890737025278   0.397510298224944   0.607825380533427   1.0
H7   H   0.444246838492901   0.295501964275871   0.957691023233835   1.0
H8   H   0.573747511157862   0.469756734035748   0.694385079876355   1.0
H9   H   0.459994279774420   0.553198886303967   0.876114475388285   1.0




# HOIP entry ID:                    0408
# Khazana ID:                       2258
# Organic cation source:            T.D.Huan et al., Phys. Rev. B 93,094105(2016)
# Label:                            Ammonium Germanium Iodide
# Material class:                   Hybrid organic-inorganic perovskite ( MC_ino )
# Geometry class:                   Bulk crystalline materials ( GC_cry )
# Organic cation chemical formula:  NH4
# Number of atom types:             4
# Total number of atoms:            9
# Atom types:                        H N  Ge I
# Number of each atom:               4 1  1 3
# Bandgap, HSE06 (eV):              3.067
# Bandgap, GGA (eV):                2.2958
# Kpoint for VBM:                   -0.2, 0.0833, 0.2222
# Kpoint for CBM:                   0.5, 0.5, 0
# Dielectric constant, electronic:  4.8363
# Dielectric constant, ionic:       22.7313
# Dielectric constant, total:       27.5676
# Refractive index:                 2.1991
# Atomization energy (eV/atom):     -3.5252
# Relative energy1 (eV/atom):       0.7764
# Relative energy2 (eV/atom):       0.9398
# Volume of the unit cell (A^3):    216.43
# Density (g/cm^3):                 3.6166
# Tool:                             VASP
# Pseudopotential:                  PAW
# Note:                             ENCUT=400eV, k-spacing_relax=0.20/Angstrom, k-spacing_bandgap=0.15/Angstrom
# Created by:                       C.Kim, T.D.Huan, S.Krishnan, R. Ramprasad