data_1
_audit_creation_method   'Generated by vasp2cif'
_cell_length_a    6.24090532492
_cell_length_b    6.23888305638
_cell_length_c    6.25475483707
_cell_angle_alpha    82.7040935116
_cell_angle_beta    82.7350139598
_cell_angle_gamma    82.9223527274

_symmetry_space_group_name_H-M    'P 1'
loop_
_atom_site_label
_atom_site_type_symbol
_atom_site_fract_x
_atom_site_fract_y
_atom_site_fract_z
_atom_site_occupancy
Ge1   Ge   0.999967434375968   0.000025789598780   0.056968484374188   1.0
I2   I   0.009341263720486   0.887613186902833   0.510197771663670   1.0
I3   I   0.453822036023574   0.009683648665096   0.942862190789008   1.0
I4   I   0.887196045383895   0.454046023030692   0.064649723513988   1.0
N5   N   0.526419309392118   0.527039948148179   0.579815110007566   1.0
H6   H   0.382394321921716   0.621385363334440   0.547110547765982   1.0
H7   H   0.492485766875106   0.384725759702711   0.677360955883380   1.0
H8   H   0.617605636646317   0.489929828560804   0.435608646714741   1.0
H9   H   0.615088185660788   0.613870452056510   0.660376569287457   1.0




# HOIP entry ID:                    0409
# Khazana ID:                       2259
# Organic cation source:            T.D.Huan et al., Phys. Rev. B 93,094105(2016)
# Label:                            Ammonium Germanium Iodide
# Material class:                   Hybrid organic-inorganic perovskite ( MC_ino )
# Geometry class:                   Bulk crystalline materials ( GC_cry )
# Organic cation chemical formula:  NH4
# Number of atom types:             4
# Total number of atoms:            9
# Atom types:                        H N  Ge I
# Number of each atom:               4 1  1 3
# Bandgap, HSE06 (eV):              2.5905
# Bandgap, GGA (eV):                1.9956
# Kpoint for VBM:                   0.5, 0.5, 0.4474
# Kpoint for CBM:                   0.5, 0.5, 0.4211
# Dielectric constant, electronic:  4.7824
# Dielectric constant, ionic:       4.972
# Dielectric constant, total:       9.7544
# Refractive index:                 2.1869
# Atomization energy (eV/atom):     -3.5189
# Relative energy1 (eV/atom):       0.7827
# Relative energy2 (eV/atom):       0.9461
# Volume of the unit cell (A^3):    238.2
# Density (g/cm^3):                 3.286
# Tool:                             VASP
# Pseudopotential:                  PAW
# Note:                             ENCUT=400eV, k-spacing_relax=0.20/Angstrom, k-spacing_bandgap=0.15/Angstrom
# Created by:                       C.Kim, T.D.Huan, S.Krishnan, R. Ramprasad