data_1
_audit_creation_method   'Generated by vasp2cif'
_cell_length_a    4.57314641981
_cell_length_b    7.11226624163
_cell_length_c    7.78394185547
_cell_angle_alpha    67.2191900449
_cell_angle_beta    72.771089281
_cell_angle_gamma    71.326024411

_symmetry_space_group_name_H-M    'P 1'
loop_
_atom_site_label
_atom_site_type_symbol
_atom_site_fract_x
_atom_site_fract_y
_atom_site_fract_z
_atom_site_occupancy
Ge1   Ge   0.748485264594102   0.067870044274542   0.177774238723501   1.0
I2   I   0.102109551641064   0.915710495877399   0.500981698743686   1.0
I3   I   0.321444708005174   0.117595647866693   0.880586598893650   1.0
I4   I   0.519207685544067   0.491082762960403   0.146640830560379   1.0
N5   N   0.811510064149552   0.467972297248281   0.548201678057175   1.0
H6   H   0.626667969241495   0.440087783866787   0.662295044785871   1.0
H7   H   0.992990836596888   0.335076912492653   0.566910167767510   1.0
H8   H   0.737681174156570   0.498058344318437   0.423993213904438   1.0
H9   H   0.888352746071050   0.593965711094789   0.540936528563734   1.0




# HOIP entry ID:                    0410
# Khazana ID:                       2260
# Organic cation source:            T.D.Huan et al., Phys. Rev. B 93,094105(2016)
# Label:                            Ammonium Germanium Iodide
# Material class:                   Hybrid organic-inorganic perovskite ( MC_ino )
# Geometry class:                   Bulk crystalline materials ( GC_cry )
# Organic cation chemical formula:  NH4
# Number of atom types:             4
# Total number of atoms:            9
# Atom types:                        H N  Ge I
# Number of each atom:               4 1  1 3
# Bandgap, HSE06 (eV):              3.087
# Bandgap, GGA (eV):                2.3264
# Kpoint for VBM:                   0.2222, 0.0833, 0.0833
# Kpoint for CBM:                   0, -0.4167, 0.4167
# Dielectric constant, electronic:  4.7926
# Dielectric constant, ionic:       10.6
# Dielectric constant, total:       15.3927
# Refractive index:                 2.1892
# Atomization energy (eV/atom):     -3.5262
# Relative energy1 (eV/atom):       0.7754
# Relative energy2 (eV/atom):       0.9388
# Volume of the unit cell (A^3):    216.8
# Density (g/cm^3):                 3.6104
# Tool:                             VASP
# Pseudopotential:                  PAW
# Note:                             ENCUT=400eV, k-spacing_relax=0.20/Angstrom, k-spacing_bandgap=0.15/Angstrom
# Created by:                       C.Kim, T.D.Huan, S.Krishnan, R. Ramprasad