data_1
_audit_creation_method   'Generated by vasp2cif'
_cell_length_a    6.38015582484
_cell_length_b    6.55293336817
_cell_length_c    6.91102357842
_cell_angle_alpha    89.9621983421
_cell_angle_beta    90.0665942004
_cell_angle_gamma    99.5861441946

_symmetry_space_group_name_H-M    'P 1'
loop_
_atom_site_label
_atom_site_type_symbol
_atom_site_fract_x
_atom_site_fract_y
_atom_site_fract_z
_atom_site_occupancy
C1   C   0.623247774068346   0.333560589749297   0.473594944478492   1.0
C2   C   0.382110135605600   0.533244126370207   0.654280737261608   1.0
C3   C   0.394241768707232   0.547091107825359   0.295653678168854   1.0
H4   H   0.716324849535845   0.329884935626090   0.605211452202553   1.0
H5   H   0.477621742232223   0.522648478594505   0.783389364262050   1.0
H6   H   0.498517728627569   0.547383700191006   0.171054444319630   1.0
H7   H   0.331269057405443   0.691298002582833   0.304156538697917   1.0
H8   H   0.320369568834820   0.678422702896874   0.651959798023825   1.0
H9   H   0.643512087750899   0.652515429720388   0.483541507830971   1.0
H10   H   0.265269676438365   0.415377261998159   0.289717376357075   1.0
H11   H   0.497113993304595   0.199207499047191   0.466015766904796   1.0
H12   H   0.252838463330598   0.401873790222595   0.645888945420324   1.0
H13   H   0.724516543643396   0.341677907696535   0.346289369176524   1.0
I14   I   0.432846105151640   0.040277247073440   0.970580834779213   1.0
I15   I   0.923831839510406   0.531236120219589   0.969395234492985   1.0
I16   I   0.982430653348878   0.954230127162248   0.444400388691349   1.0
N17   N   0.521086892946101   0.526430997624288   0.477761542969823   1.0
Ge18   Ge   0.991001119558042   0.962819975399398   0.024598075962068   1.0




# HOIP entry ID:                    0411
# Khazana ID:                       2261
# Organic cation source:            A. Mancini et al., J. Solid State Chem. 240, 55 (2016)
# Label:                            Trimethylammonium Germanium Iodide
# Material class:                   Hybrid organic-inorganic perovskite ( MC_ino )
# Geometry class:                   Bulk crystalline materials ( GC_cry )
# Organic cation chemical formula:  (CH3)3NH
# Number of atom types:             5
# Total number of atoms:            18
# Atom types:                       C H N  Ge I
# Number of each atom:              3 10 1  1 3
# Bandgap, HSE06 (eV):              2.5376
# Bandgap, GGA (eV):                1.8251
# Kpoint for VBM:                   0.4737, 0.4737, 0
# Kpoint for CBM:                   0.5, 0.5, 0.5
# Dielectric constant, electronic:  4.1562
# Dielectric constant, ionic:       2.3332
# Dielectric constant, total:       6.4895
# Refractive index:                 2.0387
# Atomization energy (eV/atom):     -4.2928
# Relative energy1 (eV/atom):       0.1887
# Relative energy2 (eV/atom):       0.2704
# Volume of the unit cell (A^3):    284.91
# Density (g/cm^3):                 2.9926
# Tool:                             VASP
# Pseudopotential:                  PAW
# Note:                             ENCUT=400eV, k-spacing_relax=0.20/Angstrom, k-spacing_bandgap=0.15/Angstrom
# Created by:                       C.Kim, T.D.Huan, S.Krishnan, R. Ramprasad