data_1
_audit_creation_method   'Generated by vasp2cif'
_cell_length_a    6.46766802464
_cell_length_b    6.53518466083
_cell_length_c    6.85386885466
_cell_angle_alpha    93.0931601845
_cell_angle_beta    87.56768264
_cell_angle_gamma    81.8599259435

_symmetry_space_group_name_H-M    'P 1'
loop_
_atom_site_label
_atom_site_type_symbol
_atom_site_fract_x
_atom_site_fract_y
_atom_site_fract_z
_atom_site_occupancy
C1   C   0.360465740394744   0.328229543195675   0.488044427166130   1.0
C2   C   0.551412845243100   0.586029205642042   0.325372251792977   1.0
C3   C   0.636591828092698   0.488667489486396   0.661921647245741   1.0
H4   H   0.230622664148520   0.364758951875281   0.393490402713994   1.0
H5   H   0.423302694503448   0.614552394351307   0.227920721668376   1.0
H6   H   0.567416716485099   0.453477292932199   0.801515177759036   1.0
H7   H   0.705606994187903   0.630589193724276   0.676187039739972   1.0
H8   H   0.620655319648023   0.726321130848397   0.354968555960070   1.0
H9   H   0.352619091780248   0.638298240141793   0.572573055947331   1.0
H10   H   0.752885495562751   0.359855219348603   0.604221437460041   1.0
H11   H   0.474873773344299   0.204102944863045   0.418948177463811   1.0
H12   H   0.669922980083577   0.461797521705350   0.262837135196072   1.0
H13   H   0.304664698154760   0.287150193310737   0.630394719626878   1.0
I14   I   0.541354474393117   0.017500050970170   0.979725560862697   1.0
I15   I   0.062307636093173   0.522390915402987   0.989566282469276   1.0
I16   I   0.015651327126328   0.930109761974400   0.520100047625426   1.0
N17   N   0.466474077991336   0.519176937559017   0.517120157508892   1.0
Ge18   Ge   0.980631642766767   0.954463012668342   0.941093201793450   1.0




# HOIP entry ID:                    0412
# Khazana ID:                       2262
# Organic cation source:            A. Mancini et al., J. Solid State Chem. 240, 55 (2016)
# Label:                            Trimethylammonium Germanium Iodide
# Material class:                   Hybrid organic-inorganic perovskite ( MC_ino )
# Geometry class:                   Bulk crystalline materials ( GC_cry )
# Organic cation chemical formula:  (CH3)3NH
# Number of atom types:             5
# Total number of atoms:            18
# Atom types:                       C H N  Ge I
# Number of each atom:              3 10 1  1 3
# Bandgap, HSE06 (eV):              2.5369
# Bandgap, GGA (eV):                1.8145
# Kpoint for VBM:                   0.5, 0.5, 0.1842
# Kpoint for CBM:                   0.5, 0.5, 0.5
# Dielectric constant, electronic:  4.1305
# Dielectric constant, ionic:       2.1182
# Dielectric constant, total:       6.2487
# Refractive index:                 2.0324
# Atomization energy (eV/atom):     -4.2923
# Relative energy1 (eV/atom):       0.1891
# Relative energy2 (eV/atom):       0.2708
# Volume of the unit cell (A^3):    285.99
# Density (g/cm^3):                 2.9813
# Tool:                             VASP
# Pseudopotential:                  PAW
# Note:                             ENCUT=400eV, k-spacing_relax=0.20/Angstrom, k-spacing_bandgap=0.15/Angstrom
# Created by:                       C.Kim, T.D.Huan, S.Krishnan, R. Ramprasad