data_1
_audit_creation_method   'Generated by vasp2cif'
_cell_length_a    6.68843313627
_cell_length_b    6.73326722292
_cell_length_c    6.69547014975
_cell_angle_alpha    96.0062156008
_cell_angle_beta    97.8404708204
_cell_angle_gamma    95.881505313

_symmetry_space_group_name_H-M    'P 1'
loop_
_atom_site_label
_atom_site_type_symbol
_atom_site_fract_x
_atom_site_fract_y
_atom_site_fract_z
_atom_site_occupancy
C1   C   0.590995878507215   0.667729513620642   0.390988584097002   1.0
C2   C   0.332174871587462   0.692095478929296   0.626196706014014   1.0
C3   C   0.555535100774875   0.417047069027191   0.637292899063496   1.0
H4   H   0.665653078743333   0.560744715122993   0.302588501980324   1.0
H5   H   0.253294679052175   0.783915364946665   0.524346310976789   1.0
H6   H   0.627271509611440   0.313316940735689   0.541982638276167   1.0
H7   H   0.445429458481577   0.335508375028745   0.713421694910430   1.0
H8   H   0.224002319055764   0.601865934835793   0.697660072200947   1.0
H9   H   0.339472633761822   0.462128309785939   0.396831710419541   1.0
H10   H   0.669932961021182   0.512788047921283   0.747462231264130   1.0
H11   H   0.504821966120147   0.757060877835585   0.291855716954508   1.0
H12   H   0.443367283096464   0.786011920627210   0.741140785262516   1.0
H13   H   0.701877231325483   0.765147334447676   0.503379154783119   1.0
I14   I   0.018113121531322   0.131039340211558   0.660928027218212   1.0
I15   I   0.028871982981123   0.693301516632545   0.080070631392189   1.0
I16   I   0.600836924831484   0.125508694124605   0.086972848089765   1.0
N17   N   0.445499478138046   0.551885959382020   0.503721367211703   1.0
Ge18   Ge   0.021659521379099   0.113424606784491   0.080810119885150   1.0




# HOIP entry ID:                    0414
# Khazana ID:                       2264
# Organic cation source:            A. Mancini et al., J. Solid State Chem. 240, 55 (2016)
# Label:                            Trimethylammonium Germanium Iodide
# Material class:                   Hybrid organic-inorganic perovskite ( MC_ino )
# Geometry class:                   Bulk crystalline materials ( GC_cry )
# Organic cation chemical formula:  (CH3)3NH
# Number of atom types:             5
# Total number of atoms:            18
# Atom types:                       C H N  Ge I
# Number of each atom:              3 10 1  1 3
# Bandgap, HSE06 (eV):              2.5572
# Bandgap, GGA (eV):                1.674
# Kpoint for VBM:                   0.5, 0.5, 0.5
# Kpoint for CBM:                   0.5, 0.5, 0.5
# Dielectric constant, electronic:  3.9984
# Dielectric constant, ionic:       2.3578
# Dielectric constant, total:       6.3561
# Refractive index:                 1.9996
# Atomization energy (eV/atom):     -4.2814
# Relative energy1 (eV/atom):       0.2001
# Relative energy2 (eV/atom):       0.2818
# Volume of the unit cell (A^3):    294.98
# Density (g/cm^3):                 2.8904
# Tool:                             VASP
# Pseudopotential:                  PAW
# Note:                             ENCUT=400eV, k-spacing_relax=0.20/Angstrom, k-spacing_bandgap=0.15/Angstrom
# Created by:                       C.Kim, T.D.Huan, S.Krishnan, R. Ramprasad