data_1
_audit_creation_method   'Generated by vasp2cif'
_cell_length_a    9.11038006124
_cell_length_b    4.99636040074
_cell_length_c    6.41445227092
_cell_angle_alpha    95.8263701929
_cell_angle_beta    96.3840620114
_cell_angle_gamma    93.0659974119

_symmetry_space_group_name_H-M    'P 1'
loop_
_atom_site_label
_atom_site_type_symbol
_atom_site_fract_x
_atom_site_fract_y
_atom_site_fract_z
_atom_site_occupancy
C1   C   0.475674329599841   0.527789596741144   0.749133732431211   1.0
C2   C   0.485369415347634   0.825494148303989   0.461908041926556   1.0
C3   C   0.658424968784203   0.462738036767881   0.482228488407145   1.0
H4   H   0.428593054660240   0.686199305127005   0.845838992848698   1.0
H5   H   0.431656880403168   0.976933676524531   0.555397287201828   1.0
H6   H   0.720565867472970   0.341327581145876   0.588835169045993   1.0
H7   H   0.734564802859502   0.576986431789507   0.400241310395124   1.0
H8   H   0.560041203094912   0.915613163827395   0.363513151933823   1.0
H9   H   0.651166905133401   0.789826947426441   0.708970425223782   1.0
H10   H   0.578123698822381   0.339417871593874   0.369278809561564   1.0
H11   H   0.387088691310815   0.405487498416171   0.649135582151807   1.0
H12   H   0.401622959363841   0.689542745749065   0.364654679462653   1.0
H13   H   0.542918654050858   0.405303821207958   0.848328838679670   1.0
I14   I   0.059496154528361   0.739480881058014   0.517433738376646   1.0
I15   I   0.267507385456852   0.165054757803944   0.078517568716997   1.0
I16   I   0.790671077826033   0.077540051830191   0.029858019168074   1.0
N17   N   0.574160665594711   0.660722996313673   0.608875395062377   1.0
Ge18   Ge   0.043673285690247   0.731950488373322   0.083620769406075   1.0




# HOIP entry ID:                    0416
# Khazana ID:                       2266
# Organic cation source:            A. Mancini et al., J. Solid State Chem. 240, 55 (2016)
# Label:                            Trimethylammonium Germanium Iodide
# Material class:                   Hybrid organic-inorganic perovskite ( MC_ino )
# Geometry class:                   Bulk crystalline materials ( GC_cry )
# Organic cation chemical formula:  (CH3)3NH
# Number of atom types:             5
# Total number of atoms:            18
# Atom types:                       C H N  Ge I
# Number of each atom:              3 10 1  1 3
# Bandgap, HSE06 (eV):              3.2782
# Bandgap, GGA (eV):                2.3628
# Kpoint for VBM:                   -0.25, -0.125, 0.3333
# Kpoint for CBM:                   0.5, 0.5, 0.5
# Dielectric constant, electronic:  3.9792
# Dielectric constant, ionic:       2.6787
# Dielectric constant, total:       6.6579
# Refractive index:                 1.9948
# Atomization energy (eV/atom):     -4.281
# Relative energy1 (eV/atom):       0.2004
# Relative energy2 (eV/atom):       0.2822
# Volume of the unit cell (A^3):    288.05
# Density (g/cm^3):                 2.9599
# Tool:                             VASP
# Pseudopotential:                  PAW
# Note:                             ENCUT=400eV, k-spacing_relax=0.20/Angstrom, k-spacing_bandgap=0.15/Angstrom
# Created by:                       C.Kim, T.D.Huan, S.Krishnan, R. Ramprasad