data_1
_audit_creation_method   'Generated by vasp2cif'
_cell_length_a    6.61013480281
_cell_length_b    5.00827176021
_cell_length_c    8.90492316375
_cell_angle_alpha    91.9007213288
_cell_angle_beta    83.4601782638
_cell_angle_gamma    82.1495322114

_symmetry_space_group_name_H-M    'P 1'
loop_
_atom_site_label
_atom_site_type_symbol
_atom_site_fract_x
_atom_site_fract_y
_atom_site_fract_z
_atom_site_occupancy
C1   C   0.292887568397248   0.520044487125006   0.476116160301665   1.0
C2   C   0.571850576785081   0.801989472076102   0.500848458927969   1.0
C3   C   0.533394179218398   0.434472533859051   0.675725557614093   1.0
H4   H   0.204840875933947   0.684433572841840   0.423784721911773   1.0
H5   H   0.487139064604094   0.961767634350799   0.443583932333517   1.0
H6   H   0.423554758321949   0.317236814341989   0.733811511716134   1.0
H7   H   0.605992604555070   0.541112060904737   0.758472365288419   1.0
H8   H   0.661757573664957   0.881734271353714   0.582575611331507   1.0
H9   H   0.317909760252029   0.773419772802313   0.659150584811194   1.0
H10   H   0.649279495908182   0.308294994581289   0.598127421486979   1.0
H11   H   0.396284170472782   0.394084851256593   0.389452079462721   1.0
H12   H   0.671850783747473   0.665541623883186   0.417519445520796   1.0
H13   H   0.189816809146549   0.402322582348077   0.540826370043625   1.0
I14   I   0.516420934078319   0.801243686295791   0.065226794403024   1.0
I15   I   0.949120959685594   0.158111704390635   0.283687713042582   1.0
I16   I   0.007446644612287   0.080237359678996   0.796126433358573   1.0
N17   N   0.420645736747481   0.641775239648204   0.584040288334585   1.0
Ge18   Ge   0.940327503868588   0.737837338261713   0.054594550110878   1.0




# HOIP entry ID:                    0417
# Khazana ID:                       2267
# Organic cation source:            A. Mancini et al., J. Solid State Chem. 240, 55 (2016)
# Label:                            Trimethylammonium Germanium Iodide
# Material class:                   Hybrid organic-inorganic perovskite ( MC_ino )
# Geometry class:                   Bulk crystalline materials ( GC_cry )
# Organic cation chemical formula:  (CH3)3NH
# Number of atom types:             5
# Total number of atoms:            18
# Atom types:                       C H N  Ge I
# Number of each atom:              3 10 1  1 3
# Bandgap, HSE06 (eV):              3.358
# Bandgap, GGA (eV):                2.4564
# Kpoint for VBM:                   0.1667, 0.125, 0.5
# Kpoint for CBM:                   0.5, 0, 0.5
# Dielectric constant, electronic:  3.862
# Dielectric constant, ionic:       2.1722
# Dielectric constant, total:       6.0342
# Refractive index:                 1.9652
# Atomization energy (eV/atom):     -4.282
# Relative energy1 (eV/atom):       0.1994
# Relative energy2 (eV/atom):       0.2811
# Volume of the unit cell (A^3):    289.78
# Density (g/cm^3):                 2.9423
# Tool:                             VASP
# Pseudopotential:                  PAW
# Note:                             ENCUT=400eV, k-spacing_relax=0.20/Angstrom, k-spacing_bandgap=0.15/Angstrom
# Created by:                       C.Kim, T.D.Huan, S.Krishnan, R. Ramprasad