data_1
_audit_creation_method   'Generated by vasp2cif'
_cell_length_a    6.42578728951
_cell_length_b    4.79140325666
_cell_length_c    9.37344361443
_cell_angle_alpha    93.5704179544
_cell_angle_beta    83.4079822356
_cell_angle_gamma    85.5731700424

_symmetry_space_group_name_H-M    'P 1'
loop_
_atom_site_label
_atom_site_type_symbol
_atom_site_fract_x
_atom_site_fract_y
_atom_site_fract_z
_atom_site_occupancy
C1   C   0.314987940328052   0.562299707908629   0.492267303998780   1.0
C2   C   0.623683772663071   0.846181329876721   0.492529370637101   1.0
C3   C   0.557803448459666   0.522907404470722   0.685536009207176   1.0
H4   H   0.233855424193003   0.718854158738786   0.433861428574865   1.0
H5   H   0.548365388051877   0.993124552377765   0.426530666526922   1.0
H6   H   0.436700199262752   0.416969307786367   0.747030745758536   1.0
H7   H   0.636582778446531   0.653221011770043   0.758161839751232   1.0
H8   H   0.722927565973350   0.948655551536561   0.562740020276621   1.0
H9   H   0.359190278055159   0.865366706731407   0.649398652811357   1.0
H10   H   0.672319050121182   0.373945058946347   0.620716035447444   1.0
H11   H   0.412606823674636   0.412491858832816   0.415701873307249   1.0
H12   H   0.716751219323406   0.680187418161317   0.422906873792037   1.0
H13   H   0.202549295979175   0.458085416431480   0.562126099531469   1.0
I14   I   0.550039905176824   0.722910273820247   0.083350777920863   1.0
I15   I   0.005271872955376   0.180255337187646   0.272169704185821   1.0
I16   I   0.024905449013581   0.097209529001042   0.804007558766628   1.0
N17   N   0.456417423305794   0.711401730267276   0.584877185243769   1.0
Ge18   Ge   0.981692165016511   0.717003646154929   0.053007854262667   1.0




# HOIP entry ID:                    0418
# Khazana ID:                       2268
# Organic cation source:            A. Mancini et al., J. Solid State Chem. 240, 55 (2016)
# Label:                            Trimethylammonium Germanium Iodide
# Material class:                   Hybrid organic-inorganic perovskite ( MC_ino )
# Geometry class:                   Bulk crystalline materials ( GC_cry )
# Organic cation chemical formula:  (CH3)3NH
# Number of atom types:             5
# Total number of atoms:            18
# Atom types:                       C H N  Ge I
# Number of each atom:              3 10 1  1 3
# Bandgap, HSE06 (eV):              3.1878
# Bandgap, GGA (eV):                2.2592
# Kpoint for VBM:                   0, 0, 0.5
# Kpoint for CBM:                   0.5, 0, 0.5
# Dielectric constant, electronic:  4.1007
# Dielectric constant, ionic:       4.1956
# Dielectric constant, total:       8.2963
# Refractive index:                 2.025
# Atomization energy (eV/atom):     -4.2795
# Relative energy1 (eV/atom):       0.2019
# Relative energy2 (eV/atom):       0.2837
# Volume of the unit cell (A^3):    285.09
# Density (g/cm^3):                 2.9907
# Tool:                             VASP
# Pseudopotential:                  PAW
# Note:                             ENCUT=400eV, k-spacing_relax=0.20/Angstrom, k-spacing_bandgap=0.15/Angstrom
# Created by:                       C.Kim, T.D.Huan, S.Krishnan, R. Ramprasad