data_1
_audit_creation_method   'Generated by vasp2cif'
_cell_length_a    6.68965710817
_cell_length_b    6.32993974277
_cell_length_c    6.34122293332
_cell_angle_alpha    90.8008542267
_cell_angle_beta    86.5218409258
_cell_angle_gamma    89.0424238048

_symmetry_space_group_name_H-M    'P 1'
loop_
_atom_site_label
_atom_site_type_symbol
_atom_site_fract_x
_atom_site_fract_y
_atom_site_fract_z
_atom_site_occupancy
I1   I   0.014875865646467   0.990340207105085   0.566736363614474   1.0
I2   I   0.537111378501706   0.065404598246118   0.062707383587572   1.0
I3   I   0.025973845741881   0.495218273194212   0.058324368423328   1.0
H4   H   0.389384792400847   0.834108814622773   0.587275990707042   1.0
H5   H   0.641564477318084   0.569857713920030   0.289109885720329   1.0
H6   H   0.640713588687774   0.840161057313537   0.548218735203370   1.0
H7   H   0.352561200958121   0.324362671091002   0.587492308033042   1.0
H8   H   0.689155138544663   0.569057477332308   0.787887679305634   1.0
H9   H   0.426648931964877   0.590592646007728   0.863033372258769   1.0
H10   H   0.373202115541986   0.592347771879759   0.304520490515117   1.0
H11   H   0.615469896675052   0.275195593442291   0.542997050218830   1.0
C12   C   0.538304393120647   0.568404095368471   0.732582325045435   1.0
C13   C   0.505970091714786   0.569267708632196   0.392794916223522   1.0
C14   C   0.498833221960652   0.397039131584144   0.564248216378566   1.0
Ge15   Ge   0.959543672892636   0.057733369266103   0.027602632613195   1.0
N16   N   0.518727388329800   0.742958870994293   0.565878282151772   1.0




# HOIP entry ID:                    0420
# Khazana ID:                       2270
# Organic cation source:            B. Zhou et al., Angew. Chem. Int. Ed. 50, 11441 (2011)
# Label:                            Azetidinium Germanium Iodide
# Material class:                   Hybrid organic-inorganic perovskite ( MC_ino )
# Geometry class:                   Bulk crystalline materials ( GC_cry )
# Organic cation chemical formula:  C3H6N2
# Number of atom types:             5
# Total number of atoms:            16
# Atom types:                       C H N  Ge I
# Number of each atom:              3 8 1  1 3
# Bandgap, HSE06 (eV):              2.2339
# Bandgap, GGA (eV):                1.6271
# Kpoint for VBM:                   0.5, 0.5, 0.5
# Kpoint for CBM:                   0.5, 0.5, 0.5
# Dielectric constant, electronic:  4.6998
# Dielectric constant, ionic:       4.3133
# Dielectric constant, total:       9.013
# Refractive index:                 2.1679
# Atomization energy (eV/atom):     -4.3352
# Relative energy1 (eV/atom):       0.2526
# Relative energy2 (eV/atom):       0.3445
# Volume of the unit cell (A^3):    267.96
# Density (g/cm^3):                 3.1694
# Tool:                             VASP
# Pseudopotential:                  PAW
# Note:                             ENCUT=400eV, k-spacing_relax=0.20/Angstrom, k-spacing_bandgap=0.15/Angstrom
# Created by:                       C.Kim, T.D.Huan, S.Krishnan, R. Ramprasad