data_1
_audit_creation_method   'Generated by vasp2cif'
_cell_length_a    6.39138849857
_cell_length_b    6.36248087659
_cell_length_c    6.55482715132
_cell_angle_alpha    95.1856586974
_cell_angle_beta    83.3384655828
_cell_angle_gamma    91.6499307212

_symmetry_space_group_name_H-M    'P 1'
loop_
_atom_site_label
_atom_site_type_symbol
_atom_site_fract_x
_atom_site_fract_y
_atom_site_fract_z
_atom_site_occupancy
I1   I   0.472161646971131   0.078235919278463   0.971792781210091   1.0
I2   I   0.973660773972611   0.109071140523078   0.464499426003783   1.0
I3   I   0.962240169177981   0.592319671331047   0.964508121646936   1.0
H4   H   0.521815889317509   0.858834907956329   0.313558202073054   1.0
H5   H   0.685043747580018   0.686417503132667   0.656152286584842   1.0
H6   H   0.421243577564937   0.893781378182304   0.561785792781016   1.0
H7   H   0.500290271746486   0.305293384754869   0.426152977389222   1.0
H8   H   0.159853303982004   0.633322127716042   0.492458962012726   1.0
H9   H   0.308752696266112   0.556824307559538   0.249273107268898   1.0
H10   H   0.759376700713752   0.602351978534195   0.389388128325805   1.0
H11   H   0.392249229741935   0.421543482042644   0.672484782124315   1.0
C12   C   0.315171206073948   0.595577259585831   0.413683663131948   1.0
C13   C   0.629387501264858   0.627680010833153   0.510990943447517   1.0
C14   C   0.456163526991865   0.452625686448023   0.516398708724495   1.0
Ge15   Ge   0.924356730731255   0.148794948265909   0.901004823929490   1.0
N16   N   0.473183027903630   0.782626293855948   0.443797293345824   1.0




# HOIP entry ID:                    0421
# Khazana ID:                       2271
# Organic cation source:            B. Zhou et al., Angew. Chem. Int. Ed. 50, 11441 (2011)
# Label:                            Azetidinium Germanium Iodide
# Material class:                   Hybrid organic-inorganic perovskite ( MC_ino )
# Geometry class:                   Bulk crystalline materials ( GC_cry )
# Organic cation chemical formula:  C3H6N2
# Number of atom types:             5
# Total number of atoms:            16
# Atom types:                       C H N  Ge I
# Number of each atom:              3 8 1  1 3
# Bandgap, HSE06 (eV):              2.3201
# Bandgap, GGA (eV):                1.6936
# Kpoint for VBM:                   0.5, 0.5, 0.2895
# Kpoint for CBM:                   0.5, 0.5, 0.5
# Dielectric constant, electronic:  4.7308
# Dielectric constant, ionic:       3.5024
# Dielectric constant, total:       8.2332
# Refractive index:                 2.175
# Atomization energy (eV/atom):     -4.336
# Relative energy1 (eV/atom):       0.2518
# Relative energy2 (eV/atom):       0.3437
# Volume of the unit cell (A^3):    263.62
# Density (g/cm^3):                 3.2215
# Tool:                             VASP
# Pseudopotential:                  PAW
# Note:                             ENCUT=400eV, k-spacing_relax=0.20/Angstrom, k-spacing_bandgap=0.15/Angstrom
# Created by:                       C.Kim, T.D.Huan, S.Krishnan, R. Ramprasad