data_1
_audit_creation_method   'Generated by vasp2cif'
_cell_length_a    6.46503910236
_cell_length_b    6.54172879784
_cell_length_c    6.29804677897
_cell_angle_alpha    90.6261722747
_cell_angle_beta    91.1289922317
_cell_angle_gamma    100.262971417

_symmetry_space_group_name_H-M    'P 1'
loop_
_atom_site_label
_atom_site_type_symbol
_atom_site_fract_x
_atom_site_fract_y
_atom_site_fract_z
_atom_site_occupancy
I1   I   0.492814699426234   0.035850324125782   0.008150639082750   1.0
I2   I   0.989161190181299   0.035051483822372   0.474560933077683   1.0
I3   I   0.010894499496622   0.533811793396445   0.000859317015291   1.0
H4   H   0.435161328282447   0.479469527054498   0.202207828240610   1.0
H5   H   0.796597640128311   0.509582821119139   0.491223749648093   1.0
H6   H   0.610630931298175   0.694117663703487   0.257385633288152   1.0
H7   H   0.401169228782621   0.397814940181412   0.750712180919010   1.0
H8   H   0.390667518458422   0.799264950916488   0.513072220267254   1.0
H9   H   0.212744802103188   0.558625799891807   0.470265687063183   1.0
H10   H   0.595997990633201   0.284712123242052   0.449102366830331   1.0
H11   H   0.590620751746748   0.630458210796093   0.780785991215510   1.0
C12   C   0.375520357950499   0.631128415825195   0.501587687941672   1.0
C13   C   0.628389356970224   0.449989235004949   0.487652154345326   1.0
C14   C   0.497707026915428   0.523418656590813   0.667228031350781   1.0
Ge15   Ge   0.937575562270041   0.097770178741271   0.020573330223613   1.0
N16   N   0.515597115356577   0.568913875588123   0.323202249490819   1.0




# HOIP entry ID:                    0422
# Khazana ID:                       2272
# Organic cation source:            B. Zhou et al., Angew. Chem. Int. Ed. 50, 11441 (2011)
# Label:                            Azetidinium Germanium Iodide
# Material class:                   Hybrid organic-inorganic perovskite ( MC_ino )
# Geometry class:                   Bulk crystalline materials ( GC_cry )
# Organic cation chemical formula:  C3H6N2
# Number of atom types:             5
# Total number of atoms:            16
# Atom types:                       C H N  Ge I
# Number of each atom:              3 8 1  1 3
# Bandgap, HSE06 (eV):              2.2789
# Bandgap, GGA (eV):                1.6731
# Kpoint for VBM:                   0.5, 0.3333, 0.5
# Kpoint for CBM:                   0.5, 0.5, 0.5
# Dielectric constant, electronic:  4.7915
# Dielectric constant, ionic:       4.7816
# Dielectric constant, total:       9.5731
# Refractive index:                 2.1889
# Atomization energy (eV/atom):     -4.333
# Relative energy1 (eV/atom):       0.2548
# Relative energy2 (eV/atom):       0.3468
# Volume of the unit cell (A^3):    262.02
# Density (g/cm^3):                 3.2412
# Tool:                             VASP
# Pseudopotential:                  PAW
# Note:                             ENCUT=400eV, k-spacing_relax=0.20/Angstrom, k-spacing_bandgap=0.15/Angstrom
# Created by:                       C.Kim, T.D.Huan, S.Krishnan, R. Ramprasad