data_1
_audit_creation_method   'Generated by vasp2cif'
_cell_length_a    6.4594869678
_cell_length_b    6.37390778998
_cell_length_c    6.48733537991
_cell_angle_alpha    86.6285277206
_cell_angle_beta    83.4705372024
_cell_angle_gamma    93.3021645343

_symmetry_space_group_name_H-M    'P 1'
loop_
_atom_site_label
_atom_site_type_symbol
_atom_site_fract_x
_atom_site_fract_y
_atom_site_fract_z
_atom_site_occupancy
I1   I   0.013199955623299   0.055254811607652   0.495203852135359   1.0
I2   I   0.568792639032792   0.054993636797476   0.047806793021608   1.0
I3   I   0.053585357662076   0.554107868349207   0.011845767146014   1.0
H4   H   0.375808727677902   0.806551112033321   0.694579213361785   1.0
H5   H   0.398078972683311   0.643631486292415   0.289292135313394   1.0
H6   H   0.570132375742236   0.867694757393855   0.502325814363224   1.0
H7   H   0.484636910850159   0.269969616457820   0.569438146402477   1.0
H8   H   0.776798227287894   0.630565930891430   0.665895440441309   1.0
H9   H   0.549793413004573   0.526881084754889   0.833789787653714   1.0
H10   H   0.227221819997501   0.538018884333459   0.513097513225325   1.0
H11   H   0.674688841505131   0.411007065695575   0.383584135445656   1.0
C12   C   0.614012817117527   0.574272139522341   0.674360360739328   1.0
C13   C   0.388228084422869   0.582038766312629   0.449908394724429   1.0
C14   C   0.549988881342868   0.425656696835526   0.508822725713541   1.0
Ge15   Ge   0.010543343365275   0.108749094605952   0.054897308754135   1.0
N16   N   0.481159632684562   0.745637048116516   0.586952611558671   1.0




# HOIP entry ID:                    0423
# Khazana ID:                       2273
# Organic cation source:            B. Zhou et al., Angew. Chem. Int. Ed. 50, 11441 (2011)
# Label:                            Azetidinium Germanium Iodide
# Material class:                   Hybrid organic-inorganic perovskite ( MC_ino )
# Geometry class:                   Bulk crystalline materials ( GC_cry )
# Organic cation chemical formula:  C3H6N2
# Number of atom types:             5
# Total number of atoms:            16
# Atom types:                       C H N  Ge I
# Number of each atom:              3 8 1  1 3
# Bandgap, HSE06 (eV):              2.0923
# Bandgap, GGA (eV):                1.4519
# Kpoint for VBM:                   0.5, 0.5, 0.5
# Kpoint for CBM:                   0.5, 0.5, 0.5
# Dielectric constant, electronic:  4.7611
# Dielectric constant, ionic:       4.9002
# Dielectric constant, total:       9.6612
# Refractive index:                 2.182
# Atomization energy (eV/atom):     -4.3326
# Relative energy1 (eV/atom):       0.2552
# Relative energy2 (eV/atom):       0.3472
# Volume of the unit cell (A^3):    264.35
# Density (g/cm^3):                 3.2127
# Tool:                             VASP
# Pseudopotential:                  PAW
# Note:                             ENCUT=400eV, k-spacing_relax=0.20/Angstrom, k-spacing_bandgap=0.15/Angstrom
# Created by:                       C.Kim, T.D.Huan, S.Krishnan, R. Ramprasad