data_1
_audit_creation_method   'Generated by vasp2cif'
_cell_length_a    8.81177541904
_cell_length_b    6.42769517761
_cell_length_c    4.76801149695
_cell_angle_alpha    94.1957501166
_cell_angle_beta    85.0621188222
_cell_angle_gamma    86.1061775581

_symmetry_space_group_name_H-M    'P 1'
loop_
_atom_site_label
_atom_site_type_symbol
_atom_site_fract_x
_atom_site_fract_y
_atom_site_fract_z
_atom_site_occupancy
I1   I   0.206398102647306   0.638442766472352   0.764586879283378   1.0
I2   I   0.968375822278496   0.142876332723439   0.297269346792788   1.0
I3   I   0.709670419183972   0.691642089055343   0.860196865037956   1.0
H4   H   0.406402829682577   0.013148456576396   0.940857775829144   1.0
H5   H   0.594213873546622   0.358184723309876   0.056571068918125   1.0
H6   H   0.652590033075370   0.102427231192685   0.048980422995243   1.0
H7   H   0.634862365779647   0.136145904565197   0.541027734664226   1.0
H8   H   0.513174681687488   0.372999322183311   0.543394400591623   1.0
H9   H   0.290284700255682   0.149798265954800   0.537723902630397   1.0
H10   H   0.415948179886676   0.922796520244653   0.432443697861856   1.0
H11   H   0.330232341476688   0.275765054226554   0.056473080542986   1.0
C12   C   0.537816585572543   0.212405354989052   0.452518112315538   1.0
C13   C   0.405361293935321   0.142814793104272   0.100559420455831   1.0
C14   C   0.394893504973545   0.089925706552506   0.411551469892274   1.0
Ge15   Ge   0.971988383764014   0.705559307328599   0.227882906151620   1.0
N16   N   0.568226882254102   0.215868171520945   0.130252916037108   1.0




# HOIP entry ID:                    0425
# Khazana ID:                       2275
# Organic cation source:            B. Zhou et al., Angew. Chem. Int. Ed. 50, 11441 (2011)
# Label:                            Azetidinium Germanium Iodide
# Material class:                   Hybrid organic-inorganic perovskite ( MC_ino )
# Geometry class:                   Bulk crystalline materials ( GC_cry )
# Organic cation chemical formula:  C3H6N2
# Number of atom types:             5
# Total number of atoms:            16
# Atom types:                       C H N  Ge I
# Number of each atom:              3 8 1  1 3
# Bandgap, HSE06 (eV):              3.0613
# Bandgap, GGA (eV):                2.1384
# Kpoint for VBM:                   0, 0, 0
# Kpoint for CBM:                   0.5, 0.5, 0
# Dielectric constant, electronic:  4.3309
# Dielectric constant, ionic:       3.8825
# Dielectric constant, total:       8.2134
# Refractive index:                 2.0811
# Atomization energy (eV/atom):     -4.3258
# Relative energy1 (eV/atom):       0.262
# Relative energy2 (eV/atom):       0.3539
# Volume of the unit cell (A^3):    267.58
# Density (g/cm^3):                 3.1739
# Tool:                             VASP
# Pseudopotential:                  PAW
# Note:                             ENCUT=400eV, k-spacing_relax=0.20/Angstrom, k-spacing_bandgap=0.15/Angstrom
# Created by:                       C.Kim, T.D.Huan, S.Krishnan, R. Ramprasad