data_1
_audit_creation_method   'Generated by vasp2cif'
_cell_length_a    8.79351777728
_cell_length_b    6.4200207062
_cell_length_c    4.75767745587
_cell_angle_alpha    91.1553809306
_cell_angle_beta    97.0390845136
_cell_angle_gamma    84.8867552849

_symmetry_space_group_name_H-M    'P 1'
loop_
_atom_site_label
_atom_site_type_symbol
_atom_site_fract_x
_atom_site_fract_y
_atom_site_fract_z
_atom_site_occupancy
I1   I   0.755562322827414   0.694385453370338   0.160125968078919   1.0
I2   I   0.025766136954110   0.205518414476356   0.729290853613039   1.0
I3   I   0.247407405853381   0.665891416185177   0.265949411596026   1.0
H4   H   0.650482776793441   0.163320696845302   0.127870527591921   1.0
H5   H   0.320682682061379   0.122570683357418   0.924195706725217   1.0
H6   H   0.462605872623023   0.928227153666037   0.982986718555972   1.0
H7   H   0.530091858023072   0.958418956274660   0.526233848693651   1.0
H8   H   0.362697126643427   0.142310301509669   0.458775060219849   1.0
H9   H   0.522222137213139   0.435164679022503   0.616845858170072   1.0
H10   H   0.690044363196073   0.255838598039547   0.643164256225843   1.0
H11   H   0.494592931681124   0.367557235553136   0.115147310536264   1.0
C12   C   0.469578019742337   0.102177588843380   0.595677323722036   1.0
C13   C   0.550475008069700   0.240302531437499   0.001451391044978   1.0
C14   C   0.571872238573782   0.281478293666979   0.690807518006301   1.0
Ge15   Ge   0.001903788458102   0.647612198123970   0.793213209692039   1.0
N16   N   0.434705331286485   0.076205799628057   0.901525037527949   1.0




# HOIP entry ID:                    0426
# Khazana ID:                       2276
# Organic cation source:            B. Zhou et al., Angew. Chem. Int. Ed. 50, 11441 (2011)
# Label:                            Azetidinium Germanium Iodide
# Material class:                   Hybrid organic-inorganic perovskite ( MC_ino )
# Geometry class:                   Bulk crystalline materials ( GC_cry )
# Organic cation chemical formula:  C3H6N2
# Number of atom types:             5
# Total number of atoms:            16
# Atom types:                       C H N  Ge I
# Number of each atom:              3 8 1  1 3
# Bandgap, HSE06 (eV):              2.9814
# Bandgap, GGA (eV):                2.0905
# Kpoint for VBM:                   0, 0, 0
# Kpoint for CBM:                   0, 0.5, 0.5
# Dielectric constant, electronic:  4.4337
# Dielectric constant, ionic:       7.2585
# Dielectric constant, total:       11.6922
# Refractive index:                 2.1056
# Atomization energy (eV/atom):     -4.3248
# Relative energy1 (eV/atom):       0.263
# Relative energy2 (eV/atom):       0.3549
# Volume of the unit cell (A^3):    265.5
# Density (g/cm^3):                 3.1987
# Tool:                             VASP
# Pseudopotential:                  PAW
# Note:                             ENCUT=400eV, k-spacing_relax=0.20/Angstrom, k-spacing_bandgap=0.15/Angstrom
# Created by:                       C.Kim, T.D.Huan, S.Krishnan, R. Ramprasad