data_1
_audit_creation_method   'Generated by vasp2cif'
_cell_length_a    6.29059017104
_cell_length_b    4.48467908851
_cell_length_c    9.36280513531
_cell_angle_alpha    88.5359277081
_cell_angle_beta    93.1307781675
_cell_angle_gamma    95.3871262514

_symmetry_space_group_name_H-M    'P 1'
loop_
_atom_site_label
_atom_site_type_symbol
_atom_site_fract_x
_atom_site_fract_y
_atom_site_fract_z
_atom_site_occupancy
I1   I   0.836123135687422   0.798944787393097   0.813414939286837   1.0
I2   I   0.389324390172037   0.227605293521793   0.065861967156115   1.0
I3   I   0.888628464500665   0.779499755725917   0.293662768630370   1.0
H4   H   0.029813092825612   0.196512210833004   0.551282756482306   1.0
H5   H   0.248535763446667   0.197376237395017   0.356727173329858   1.0
H6   H   0.328837959497948   0.554134598781938   0.379460181183922   1.0
H7   H   0.570872053183275   0.063228298750686   0.475302037609876   1.0
H8   H   0.627394486366603   0.439605695094307   0.533335807289228   1.0
H9   H   0.425284119119013   0.312284047814437   0.749706236524191   1.0
H10   H   0.328829796947118   0.957872276232856   0.682640213501799   1.0
H11   H   0.150280735162185   0.558493546773544   0.599584874229905   1.0
C12   C   0.505350088082029   0.251175731848999   0.523382273018367   1.0
C13   C   0.180148483497763   0.334720920842145   0.568731655779083   1.0
C14   C   0.365038511508518   0.193481845308153   0.653894691891215   1.0
Ge15   Ge   0.829946773446468   0.317827565484643   0.043022771220818   1.0
N16   N   0.309942146556755   0.350717188199397   0.432499652866081   1.0




# HOIP entry ID:                    0427
# Khazana ID:                       2277
# Organic cation source:            B. Zhou et al., Angew. Chem. Int. Ed. 50, 11441 (2011)
# Label:                            Azetidinium Germanium Iodide
# Material class:                   Hybrid organic-inorganic perovskite ( MC_ino )
# Geometry class:                   Bulk crystalline materials ( GC_cry )
# Organic cation chemical formula:  C3H6N2
# Number of atom types:             5
# Total number of atoms:            16
# Atom types:                       C H N  Ge I
# Number of each atom:              3 8 1  1 3
# Bandgap, HSE06 (eV):              3.1088
# Bandgap, GGA (eV):                2.2614
# Kpoint for VBM:                   -0.0833, 0, 0.375
# Kpoint for CBM:                   -0.4167, 0, 0.375
# Dielectric constant, electronic:  4.5998
# Dielectric constant, ionic:       10.7509
# Dielectric constant, total:       15.3507
# Refractive index:                 2.1447
# Atomization energy (eV/atom):     -4.3184
# Relative energy1 (eV/atom):       0.2694
# Relative energy2 (eV/atom):       0.3613
# Volume of the unit cell (A^3):    262.52
# Density (g/cm^3):                 3.235
# Tool:                             VASP
# Pseudopotential:                  PAW
# Note:                             ENCUT=400eV, k-spacing_relax=0.20/Angstrom, k-spacing_bandgap=0.15/Angstrom
# Created by:                       C.Kim, T.D.Huan, S.Krishnan, R. Ramprasad