data_1
_audit_creation_method   'Generated by vasp2cif'
_cell_length_a    8.95275172475
_cell_length_b    4.56418758377
_cell_length_c    7.12197358374
_cell_angle_alpha    70.5803994475
_cell_angle_beta    89.9267367297
_cell_angle_gamma    98.8365062464

_symmetry_space_group_name_H-M    'P 1'
loop_
_atom_site_label
_atom_site_type_symbol
_atom_site_fract_x
_atom_site_fract_y
_atom_site_fract_z
_atom_site_occupancy
I1   I   0.796136241857496   0.808072897203111   0.165077946863384   1.0
I2   I   0.084863047002955   0.260114161670842   0.564655714848520   1.0
I3   I   0.293746877658783   0.998059704606952   0.076879278196252   1.0
H4   H   0.559893593287356   0.499473318828102   0.734134506262009   1.0
H5   H   0.344782977078431   0.699690857977636   0.562745117236759   1.0
H6   H   0.337149856372577   0.924797859804166   0.702967184824459   1.0
H7   H   0.540478562204584   0.073977566496694   0.344190187166973   1.0
H8   H   0.493149328907215   0.343405650492890   0.457673835390111   1.0
H9   H   0.689786479843278   0.172412055721473   0.714655825022902   1.0
H10   H   0.752685483897828   0.969722564397763   0.564661671290231   1.0
H11   H   0.517565659445204   0.682088586884099   0.909619168216537   1.0
C12   C   0.527719704537773   0.115032939236251   0.484786548922443   1.0
C13   C   0.541521771537965   0.717713041719868   0.753315767832305   1.0
C14   C   0.653131766008890   0.015171224175049   0.631120868319300   1.0
Ge15   Ge   0.040703287350929   0.451501270164506   0.154776382761845   1.0
N16   N   0.410585363008764   0.845416300620528   0.625829996845930   1.0




# HOIP entry ID:                    0428
# Khazana ID:                       2278
# Organic cation source:            B. Zhou et al., Angew. Chem. Int. Ed. 50, 11441 (2011)
# Label:                            Azetidinium Germanium Iodide
# Material class:                   Hybrid organic-inorganic perovskite ( MC_ino )
# Geometry class:                   Bulk crystalline materials ( GC_cry )
# Organic cation chemical formula:  C3H6N2
# Number of atom types:             5
# Total number of atoms:            16
# Atom types:                       C H N  Ge I
# Number of each atom:              3 8 1  1 3
# Bandgap, HSE06 (eV):              3.3466
# Bandgap, GGA (eV):                2.5236
# Kpoint for VBM:                   0.5, 0.1667, 0.1667
# Kpoint for CBM:                   0.375, 0, 0.4167
# Dielectric constant, electronic:  4.1641
# Dielectric constant, ionic:       5.0654
# Dielectric constant, total:       9.2296
# Refractive index:                 2.0406
# Atomization energy (eV/atom):     -4.3204
# Relative energy1 (eV/atom):       0.2674
# Relative energy2 (eV/atom):       0.3594
# Volume of the unit cell (A^3):    270.78
# Density (g/cm^3):                 3.1364
# Tool:                             VASP
# Pseudopotential:                  PAW
# Note:                             ENCUT=400eV, k-spacing_relax=0.20/Angstrom, k-spacing_bandgap=0.15/Angstrom
# Created by:                       C.Kim, T.D.Huan, S.Krishnan, R. Ramprasad