data_1
_audit_creation_method   'Generated by vasp2cif'
_cell_length_a    8.8682076001
_cell_length_b    4.78391779067
_cell_length_c    6.75401667704
_cell_angle_alpha    75.3123465856
_cell_angle_beta    88.7540325324
_cell_angle_gamma    99.7291948887

_symmetry_space_group_name_H-M    'P 1'
loop_
_atom_site_label
_atom_site_type_symbol
_atom_site_fract_x
_atom_site_fract_y
_atom_site_fract_z
_atom_site_occupancy
I1   I   0.794473627636698   0.783498922318707   0.169953967209942   1.0
I2   I   0.084606960358116   0.278668198212728   0.562229553470324   1.0
I3   I   0.291637100546104   0.974052536229756   0.069155770347052   1.0
H4   H   0.602678295774574   0.613030173371769   0.636206854019683   1.0
H5   H   0.363485448909010   0.730318435566865   0.493389431355503   1.0
H6   H   0.329543855894585   0.881811189620201   0.683339295222098   1.0
H7   H   0.564970205118087   0.130252993404376   0.336020389269031   1.0
H8   H   0.464586174971970   0.328428653409269   0.469089070383042   1.0
H9   H   0.623322399011613   0.175528397153762   0.779883236657476   1.0
H10   H   0.755532753468572   0.105724606080862   0.603995907039298   1.0
H11   H   0.513948940567886   0.639321679666949   0.872210391033640   1.0
C12   C   0.522659520266870   0.141945897095859   0.485532174514233   1.0
C13   C   0.549764224395140   0.749566398768422   0.712550760847698   1.0
C14   C   0.635426021000782   0.071222449159571   0.655913982057932   1.0
Ge15   Ge   0.037825382010510   0.454941211010954   0.144302518316067   1.0
N16   N   0.414799090069451   0.850388258929932   0.588646698257016   1.0




# HOIP entry ID:                    0430
# Khazana ID:                       2280
# Organic cation source:            B. Zhou et al., Angew. Chem. Int. Ed. 50, 11441 (2011)
# Label:                            Azetidinium Germanium Iodide
# Material class:                   Hybrid organic-inorganic perovskite ( MC_ino )
# Geometry class:                   Bulk crystalline materials ( GC_cry )
# Organic cation chemical formula:  C3H6N2
# Number of atom types:             5
# Total number of atoms:            16
# Atom types:                       C H N  Ge I
# Number of each atom:              3 8 1  1 3
# Bandgap, HSE06 (eV):              3.3119
# Bandgap, GGA (eV):                2.4647
# Kpoint for VBM:                   -0.375, 0.1875, 0.25
# Kpoint for CBM:                   0.5, 0, 0.5
# Dielectric constant, electronic:  4.0878
# Dielectric constant, ionic:       3.5184
# Dielectric constant, total:       7.6062
# Refractive index:                 2.0218
# Atomization energy (eV/atom):     -4.3203
# Relative energy1 (eV/atom):       0.2675
# Relative energy2 (eV/atom):       0.3595
# Volume of the unit cell (A^3):    272.56
# Density (g/cm^3):                 3.1159
# Tool:                             VASP
# Pseudopotential:                  PAW
# Note:                             ENCUT=400eV, k-spacing_relax=0.20/Angstrom, k-spacing_bandgap=0.15/Angstrom
# Created by:                       C.Kim, T.D.Huan, S.Krishnan, R. Ramprasad