data_1
_audit_creation_method   'Generated by vasp2cif'
_cell_length_a    6.23849039484
_cell_length_b    4.44767578506
_cell_length_c    9.44505604751
_cell_angle_alpha    87.7722364575
_cell_angle_beta    88.6501984189
_cell_angle_gamma    86.1671179046

_symmetry_space_group_name_H-M    'P 1'
loop_
_atom_site_label
_atom_site_type_symbol
_atom_site_fract_x
_atom_site_fract_y
_atom_site_fract_z
_atom_site_occupancy
I1   I   0.914159774967047   0.819454446601533   0.794305564004063   1.0
I2   I   0.434328295950742   0.320791550770103   0.044370149892849   1.0
I3   I   0.912557010561969   0.800831504487640   0.276901708186159   1.0
H4   H   0.252706050165727   0.968525811180292   0.508315793289455   1.0
H5   H   0.468998260638095   0.227921937128279   0.335371168571903   1.0
H6   H   0.334194202561527   0.549286734588463   0.368482304942788   1.0
H7   H   0.710183572574437   0.266038284033641   0.522117284112575   1.0
H8   H   0.602545159809274   0.644652041028706   0.539825980006391   1.0
H9   H   0.326157226660826   0.467158536800866   0.715007863124171   1.0
H10   H   0.462597370270259   0.104622723605630   0.716954114580460   1.0
H11   H   0.095000705090897   0.314227452754558   0.522735080570271   1.0
C12   C   0.563993951721208   0.410236009867184   0.537486755489205   1.0
C13   C   0.256784418153835   0.207260805021747   0.527741575205702   1.0
C14   C   0.400879428328800   0.292351522919375   0.648992990914607   1.0
Ge15   Ge   0.881825823594866   0.257822972860403   0.024962303195871   1.0
N16   N   0.407198748950506   0.358247666351588   0.416919363913479   1.0




# HOIP entry ID:                    0431
# Khazana ID:                       2281
# Organic cation source:            B. Zhou et al., Angew. Chem. Int. Ed. 50, 11441 (2011)
# Label:                            Azetidinium Germanium Iodide
# Material class:                   Hybrid organic-inorganic perovskite ( MC_ino )
# Geometry class:                   Bulk crystalline materials ( GC_cry )
# Organic cation chemical formula:  C3H6N2
# Number of atom types:             5
# Total number of atoms:            16
# Atom types:                       C H N  Ge I
# Number of each atom:              3 8 1  1 3
# Bandgap, HSE06 (eV):              2.9751
# Bandgap, GGA (eV):                2.2167
# Kpoint for VBM:                   0.0833, 0, 0.375
# Kpoint for CBM:                   0.5, 0.5, 0.5
# Dielectric constant, electronic:  4.6202
# Dielectric constant, ionic:       10.7637
# Dielectric constant, total:       15.3839
# Refractive index:                 2.1495
# Atomization energy (eV/atom):     -4.3171
# Relative energy1 (eV/atom):       0.2707
# Relative energy2 (eV/atom):       0.3626
# Volume of the unit cell (A^3):    261.23
# Density (g/cm^3):                 3.251
# Tool:                             VASP
# Pseudopotential:                  PAW
# Note:                             ENCUT=400eV, k-spacing_relax=0.20/Angstrom, k-spacing_bandgap=0.15/Angstrom
# Created by:                       C.Kim, T.D.Huan, S.Krishnan, R. Ramprasad