data_1
_audit_creation_method   'Generated by vasp2cif'
_cell_length_a    8.26741458433
_cell_length_b    6.90569607746
_cell_length_c    4.75101435815
_cell_angle_alpha    87.8699120723
_cell_angle_beta    87.5260873189
_cell_angle_gamma    84.7781455904

_symmetry_space_group_name_H-M    'P 1'
loop_
_atom_site_label
_atom_site_type_symbol
_atom_site_fract_x
_atom_site_fract_y
_atom_site_fract_z
_atom_site_occupancy
I1   I   0.158468114220960   0.527144655451116   0.821463951579584   1.0
I2   I   0.871834471853199   0.051737217557566   0.811888986113028   1.0
I3   I   0.662132051160863   0.573916927658906   0.311320206807696   1.0
H4   H   0.432111243339588   0.875823053619192   0.920808064485420   1.0
H5   H   0.409420092743218   0.303202052516634   0.986597475413498   1.0
H6   H   0.583157006958119   0.150894863919515   0.966912831171741   1.0
H7   H   0.555289551922489   0.053537124337687   0.442570878086897   1.0
H8   H   0.407956320125665   0.261602133585633   0.475332182780004   1.0
H9   H   0.185850926144291   0.062060246328017   0.360732117028676   1.0
H10   H   0.322175781401260   0.848268605321296   0.415412465710942   1.0
H11   H   0.259463053685642   0.049487891393663   0.854161498018400   1.0
C12   C   0.442584105371309   0.127398955369356   0.366083213820706   1.0
C13   C   0.355858238710649   0.001938911449083   0.996136864864249   1.0
C14   C   0.307578039126526   0.992411285947162   0.313841124817446   1.0
Ge15   Ge   0.950843775378682   0.747689537291507   0.250952101524092   1.0
N16   N   0.463967227857575   0.167966538253736   0.047466037777738   1.0




# HOIP entry ID:                    0433
# Khazana ID:                       2283
# Organic cation source:            B. Zhou et al., Angew. Chem. Int. Ed. 50, 11441 (2011)
# Label:                            Azetidinium Germanium Iodide
# Material class:                   Hybrid organic-inorganic perovskite ( MC_ino )
# Geometry class:                   Bulk crystalline materials ( GC_cry )
# Organic cation chemical formula:  C3H6N2
# Number of atom types:             5
# Total number of atoms:            16
# Atom types:                       C H N  Ge I
# Number of each atom:              3 8 1  1 3
# Bandgap, HSE06 (eV):              3.196
# Bandgap, GGA (eV):                2.4004
# Kpoint for VBM:                   0, 0.4167, 0.3125
# Kpoint for CBM:                   -0.1, 0.3333, 0
# Dielectric constant, electronic:  4.1566
# Dielectric constant, ionic:       3.6025
# Dielectric constant, total:       7.7591
# Refractive index:                 2.0388
# Atomization energy (eV/atom):     -4.3195
# Relative energy1 (eV/atom):       0.2683
# Relative energy2 (eV/atom):       0.3602
# Volume of the unit cell (A^3):    269.72
# Density (g/cm^3):                 3.1487
# Tool:                             VASP
# Pseudopotential:                  PAW
# Note:                             ENCUT=400eV, k-spacing_relax=0.20/Angstrom, k-spacing_bandgap=0.15/Angstrom
# Created by:                       C.Kim, T.D.Huan, S.Krishnan, R. Ramprasad