data_1
_audit_creation_method   'Generated by vasp2cif'
_cell_length_a    8.47261458329
_cell_length_b    6.76870997446
_cell_length_c    4.77301332571
_cell_angle_alpha    86.9155980738
_cell_angle_beta    90.1069443068
_cell_angle_gamma    81.0171607175

_symmetry_space_group_name_H-M    'P 1'
loop_
_atom_site_label
_atom_site_type_symbol
_atom_site_fract_x
_atom_site_fract_y
_atom_site_fract_z
_atom_site_occupancy
I1   I   0.930426543415749   0.195877205310289   0.757086565685185   1.0
I2   I   0.120352656838605   0.689334404181700   0.311671676060179   1.0
I3   I   0.618593393735580   0.749775652129955   0.699242197848960   1.0
H4   H   0.331428200961817   0.108914697954880   0.713439314665436   1.0
H5   H   0.529029768290037   0.411540064210101   0.817066032786741   1.0
H6   H   0.596674745400001   0.163044680372529   0.821246838793890   1.0
H7   H   0.597185555266464   0.154561951004808   0.310417537270027   1.0
H8   H   0.473084221825367   0.398557699845398   0.295839222303009   1.0
H9   H   0.234626031906650   0.220405695061416   0.292224319650970   1.0
H10   H   0.359407334621736   0.992755038666168   0.212446417742768   1.0
H11   H   0.257692833237499   0.361639902672252   0.804909252250845   1.0
C12   C   0.492845774631142   0.248951951946033   0.214622930853423   1.0
C13   C   0.337216898160150   0.222915582748748   0.862625164910860   1.0
C14   C   0.338523375012606   0.155331592552798   0.176515458151101   1.0
Ge15   Ge   0.852308445066981   0.508215087929237   0.311766369674949   1.0
N16   N   0.509024221629666   0.271168793413665   0.894230701351823   1.0




# HOIP entry ID:                    0434
# Khazana ID:                       2284
# Organic cation source:            B. Zhou et al., Angew. Chem. Int. Ed. 50, 11441 (2011)
# Label:                            Azetidinium Germanium Iodide
# Material class:                   Hybrid organic-inorganic perovskite ( MC_ino )
# Geometry class:                   Bulk crystalline materials ( GC_cry )
# Organic cation chemical formula:  C3H6N2
# Number of atom types:             5
# Total number of atoms:            16
# Atom types:                       C H N  Ge I
# Number of each atom:              3 8 1  1 3
# Bandgap, HSE06 (eV):              3.2068
# Bandgap, GGA (eV):                2.3194
# Kpoint for VBM:                   0.1842, 0.1842, 0.1842
# Kpoint for CBM:                   0, 0.1667, 0
# Dielectric constant, electronic:  4.1375
# Dielectric constant, ionic:       3.8807
# Dielectric constant, total:       8.0181
# Refractive index:                 2.0341
# Atomization energy (eV/atom):     -4.3154
# Relative energy1 (eV/atom):       0.2724
# Relative energy2 (eV/atom):       0.3643
# Volume of the unit cell (A^3):    269.96
# Density (g/cm^3):                 3.1459
# Tool:                             VASP
# Pseudopotential:                  PAW
# Note:                             ENCUT=400eV, k-spacing_relax=0.20/Angstrom, k-spacing_bandgap=0.15/Angstrom
# Created by:                       C.Kim, T.D.Huan, S.Krishnan, R. Ramprasad