data_1
_audit_creation_method   'Generated by vasp2cif'
_cell_length_a    6.28354950808
_cell_length_b    7.0996186126
_cell_length_c    6.29692692135
_cell_angle_alpha    88.5099412486
_cell_angle_beta    80.9351172334
_cell_angle_gamma    89.5368150264

_symmetry_space_group_name_H-M    'P 1'
loop_
_atom_site_label
_atom_site_type_symbol
_atom_site_fract_x
_atom_site_fract_y
_atom_site_fract_z
_atom_site_occupancy
I1   I   0.344061630581365   0.723663630035858   0.064841392056003   1.0
I2   I   0.843406905613399   0.726383060605443   0.570785230629227   1.0
I3   I   0.867996591865257   0.187446165910032   0.086686874472854   1.0
H4   H   0.555023230313616   0.033093653137087   0.768182033211183   1.0
H5   H   0.309626328489365   0.916882234512855   0.512709086994768   1.0
H6   H   0.276093050223018   0.513919859983766   0.510068102603583   1.0
H7   H   0.555952198029622   0.391278303093827   0.788228810846014   1.0
H8   H   0.144573516736962   0.212468758934705   0.360626247283825   1.0
C9   C   0.463355078256967   0.315175709705343   0.689783098159793   1.0
C10   C   0.338076287416754   0.060682236233738   0.549471579627081   1.0
C11   C   0.326430594710210   0.375246238791462   0.553567678145448   1.0
Ge12   Ge   0.893901016163845   0.783041926443396   0.120108509760747   1.0
N13   N   0.467525527717214   0.120248304738816   0.684039009973688   1.0
N14   N   0.250838043882439   0.214729917873612   0.468552346235775   1.0




# HOIP entry ID:                    0435
# Khazana ID:                       2285
# Organic cation source:            B.Saparov et al., Chem. Rev. 116, 4558 (2016)
# Label:                            Imidazolium Germanium Iodide
# Material class:                   Hybrid organic-inorganic perovskite ( MC_ino )
# Geometry class:                   Bulk crystalline materials ( GC_cry )
# Organic cation chemical formula:  C3H5N2
# Number of atom types:             5
# Total number of atoms:            14
# Atom types:                       C H N  Ge I
# Number of each atom:              3 5 2  1 3
# Bandgap, HSE06 (eV):              2.327
# Bandgap, GGA (eV):                1.7434
# Kpoint for VBM:                   0.5, 0.1, 0.5
# Kpoint for CBM:                   0.5, 0.5, 0.5
# Dielectric constant, electronic:  4.434
# Dielectric constant, ionic:       5.2067
# Dielectric constant, total:       9.6407
# Refractive index:                 2.1057
# Atomization energy (eV/atom):     -4.7674
# Relative energy1 (eV/atom):       0.4943
# Relative energy2 (eV/atom):       0.5993
# Volume of the unit cell (A^3):    277.31
# Density (g/cm^3):                 3.1283
# Tool:                             VASP
# Pseudopotential:                  PAW
# Note:                             ENCUT=400eV, k-spacing_relax=0.20/Angstrom, k-spacing_bandgap=0.15/Angstrom
# Created by:                       C.Kim, T.D.Huan, S.Krishnan, R. Ramprasad