data_1
_audit_creation_method   'Generated by vasp2cif'
_cell_length_a    6.31226391318
_cell_length_b    7.0176795334
_cell_length_c    6.32576337097
_cell_angle_alpha    92.52132876
_cell_angle_beta    80.1315279697
_cell_angle_gamma    90.7187798718

_symmetry_space_group_name_H-M    'P 1'
loop_
_atom_site_label
_atom_site_type_symbol
_atom_site_fract_x
_atom_site_fract_y
_atom_site_fract_z
_atom_site_occupancy
I1   I   0.660475789549401   0.752314452035160   0.928876297816770   1.0
I2   I   0.159357246058975   0.757336000936866   0.418394839889261   1.0
I3   I   0.129940506203674   0.225804040719992   0.904207539429459   1.0
H4   H   0.469592901674749   0.037404162919772   0.264619853334507   1.0
H5   H   0.724522263933503   0.982924613041726   0.528219238142717   1.0
H6   H   0.702040327490360   0.578224884669567   0.443898283667390   1.0
H7   H   0.436056025608462   0.390262893346257   0.192249514151007   1.0
H8   H   0.860822109584394   0.311083146952894   0.632814128990693   1.0
C9   C   0.535227592838863   0.337730742969651   0.298660251833306   1.0
C10   C   0.683370649731882   0.117437140409289   0.471064416355857   1.0
C11   C   0.665335847244756   0.429715064216274   0.422204642166191   1.0
Ge12   Ge   0.109455460373222   0.818448705311624   0.870111216616468   1.0
N13   N   0.549448804217711   0.144730388496581   0.331957433845639   1.0
N14   N   0.755534475490050   0.290053763974398   0.527462343760739   1.0




# HOIP entry ID:                    0436
# Khazana ID:                       2286
# Organic cation source:            B.Saparov et al., Chem. Rev. 116, 4558 (2016)
# Label:                            Imidazolium Germanium Iodide
# Material class:                   Hybrid organic-inorganic perovskite ( MC_ino )
# Geometry class:                   Bulk crystalline materials ( GC_cry )
# Organic cation chemical formula:  C3H5N2
# Number of atom types:             5
# Total number of atoms:            14
# Atom types:                       C H N  Ge I
# Number of each atom:              3 5 2  1 3
# Bandgap, HSE06 (eV):              2.3986
# Bandgap, GGA (eV):                1.8006
# Kpoint for VBM:                   0.5, 0.1, 0.5
# Kpoint for CBM:                   0.5, 0.5, 0.5
# Dielectric constant, electronic:  4.4344
# Dielectric constant, ionic:       5.0736
# Dielectric constant, total:       9.508
# Refractive index:                 2.1058
# Atomization energy (eV/atom):     -4.7681
# Relative energy1 (eV/atom):       0.4936
# Relative energy2 (eV/atom):       0.5986
# Volume of the unit cell (A^3):    275.8
# Density (g/cm^3):                 3.1454
# Tool:                             VASP
# Pseudopotential:                  PAW
# Note:                             ENCUT=400eV, k-spacing_relax=0.20/Angstrom, k-spacing_bandgap=0.15/Angstrom
# Created by:                       C.Kim, T.D.Huan, S.Krishnan, R. Ramprasad