data_1
_audit_creation_method   'Generated by vasp2cif'
_cell_length_a    6.54988809221
_cell_length_b    6.43274575461
_cell_length_c    6.59907064117
_cell_angle_alpha    97.6058228811
_cell_angle_beta    96.9145638975
_cell_angle_gamma    94.1901469261

_symmetry_space_group_name_H-M    'P 1'
loop_
_atom_site_label
_atom_site_type_symbol
_atom_site_fract_x
_atom_site_fract_y
_atom_site_fract_z
_atom_site_occupancy
I1   I   0.954513851803518   0.862781070228563   0.439293675272246   1.0
I2   I   0.484157943430194   0.841166867639948   0.938209184984480   1.0
I3   I   0.943536464042432   0.389581215754127   0.909157933645544   1.0
H4   H   0.183856747923106   0.473954533292567   0.595395125471744   1.0
H5   H   0.378722228613459   0.167004917109742   0.698475158407472   1.0
H6   H   0.632519073069884   0.373230044540780   0.189017809858577   1.0
H7   H   0.321479618849485   0.624283129011995   0.291109906900502   1.0
H8   H   0.647015550258519   0.111631807857659   0.449356649528440   1.0
C9   C   0.379319061875118   0.492496789004136   0.356286161557865   1.0
C10   C   0.402314053393338   0.254432131383712   0.573717306781060   1.0
C11   C   0.532767507960397   0.370043961496298   0.307005294834401   1.0
Ge12   Ge   0.915252195543266   0.832315447346477   0.999490375177150   1.0
N13   N   0.300355431316071   0.416818949258696   0.521250396699553   1.0
N14   N   0.543610271921103   0.223319136075375   0.444085020880899   1.0




# HOIP entry ID:                    0437
# Khazana ID:                       2287
# Organic cation source:            B.Saparov et al., Chem. Rev. 116, 4558 (2016)
# Label:                            Imidazolium Germanium Iodide
# Material class:                   Hybrid organic-inorganic perovskite ( MC_ino )
# Geometry class:                   Bulk crystalline materials ( GC_cry )
# Organic cation chemical formula:  C3H5N2
# Number of atom types:             5
# Total number of atoms:            14
# Atom types:                       C H N  Ge I
# Number of each atom:              3 5 2  1 3
# Bandgap, HSE06 (eV):              2.4688
# Bandgap, GGA (eV):                1.8199
# Kpoint for VBM:                   0.3947, 0.5, 0.3947
# Kpoint for CBM:                   0.5, 0.5, 0.5
# Dielectric constant, electronic:  4.4349
# Dielectric constant, ionic:       2.8308
# Dielectric constant, total:       7.2657
# Refractive index:                 2.1059
# Atomization energy (eV/atom):     -4.7698
# Relative energy1 (eV/atom):       0.4918
# Relative energy2 (eV/atom):       0.5969
# Volume of the unit cell (A^3):    272.47
# Density (g/cm^3):                 3.1838
# Tool:                             VASP
# Pseudopotential:                  PAW
# Note:                             ENCUT=400eV, k-spacing_relax=0.20/Angstrom, k-spacing_bandgap=0.15/Angstrom
# Created by:                       C.Kim, T.D.Huan, S.Krishnan, R. Ramprasad