data_1
_audit_creation_method   'Generated by vasp2cif'
_cell_length_a    6.41751668509
_cell_length_b    4.3704981431
_cell_length_c    9.67099631588
_cell_angle_alpha    88.1832827521
_cell_angle_beta    88.8782719669
_cell_angle_gamma    81.4112242397

_symmetry_space_group_name_H-M    'P 1'
loop_
_atom_site_label
_atom_site_type_symbol
_atom_site_fract_x
_atom_site_fract_y
_atom_site_fract_z
_atom_site_occupancy
I1   I   0.954038618826580   0.957104366137195   0.786239636495132   1.0
I2   I   0.485012935928680   0.511515373686095   0.040010210191077   1.0
I3   I   0.958242190229925   0.923780098374316   0.258420475515585   1.0
H4   H   0.533795847715005   0.527281945539812   0.310209391063737   1.0
H5   H   0.235753318044544   0.264792032030023   0.663236508621189   1.0
H6   H   0.518662309262851   0.566775195580576   0.749011514542737   1.0
H7   H   0.725931272074327   0.740806038981795   0.509688943225044   1.0
H8   H   0.240194209960457   0.236197211086498   0.398728473191220   1.0
C9   C   0.494833738248182   0.527307259388920   0.641572059258827   1.0
C10   C   0.595805177788229   0.613274474021814   0.524213937320788   1.0
C11   C   0.343013095238085   0.348432297113277   0.460749193851591   1.0
Ge12   Ge   0.926010728883355   0.391779826714597   0.024407218782152   1.0
N13   N   0.338992486892828   0.362870032216094   0.599473031579919   1.0
N14   N   0.498644070906984   0.499473849128989   0.413489406360945   1.0




# HOIP entry ID:                    0438
# Khazana ID:                       2288
# Organic cation source:            B.Saparov et al., Chem. Rev. 116, 4558 (2016)
# Label:                            Imidazolium Germanium Iodide
# Material class:                   Hybrid organic-inorganic perovskite ( MC_ino )
# Geometry class:                   Bulk crystalline materials ( GC_cry )
# Organic cation chemical formula:  C3H5N2
# Number of atom types:             5
# Total number of atoms:            14
# Atom types:                       C H N  Ge I
# Number of each atom:              3 5 2  1 3
# Bandgap, HSE06 (eV):              3.2097
# Bandgap, GGA (eV):                2.3536
# Kpoint for VBM:                   0.0833, 0, 0.375
# Kpoint for CBM:                   0.5, 0.0556, 0
# Dielectric constant, electronic:  4.4217
# Dielectric constant, ionic:       5.4481
# Dielectric constant, total:       9.8697
# Refractive index:                 2.1028
# Atomization energy (eV/atom):     -4.7669
# Relative energy1 (eV/atom):       0.4948
# Relative energy2 (eV/atom):       0.5998
# Volume of the unit cell (A^3):    268.04
# Density (g/cm^3):                 3.2365
# Tool:                             VASP
# Pseudopotential:                  PAW
# Note:                             ENCUT=400eV, k-spacing_relax=0.20/Angstrom, k-spacing_bandgap=0.15/Angstrom
# Created by:                       C.Kim, T.D.Huan, S.Krishnan, R. Ramprasad