data_1
_audit_creation_method   'Generated by vasp2cif'
_cell_length_a    10.2085293078
_cell_length_b    4.43199499317
_cell_length_c    6.39384375997
_cell_angle_alpha    82.7833118961
_cell_angle_beta    85.9528095727
_cell_angle_gamma    68.9247951379

_symmetry_space_group_name_H-M    'P 1'
loop_
_atom_site_label
_atom_site_type_symbol
_atom_site_fract_x
_atom_site_fract_y
_atom_site_fract_z
_atom_site_occupancy
I1   I   0.241201696014485   0.660106972595059   0.973986832668736   1.0
I2   I   0.985589444055925   0.398198959840734   0.510732041354828   1.0
I3   I   0.765706440333801   0.051841673807815   0.003035108827447   1.0
H4   H   0.711386149326344   0.718527191789079   0.594252477611384   1.0
H5   H   0.367762273564693   0.856033745864956   0.248929236538061   1.0
H6   H   0.279746361685241   0.285115343383438   0.510267383193280   1.0
H7   H   0.511745925799048   0.185068808432888   0.751541689447265   1.0
H8   H   0.628187846854608   0.508581230475301   0.295397517676818   1.0
C9   C   0.385927377282322   0.115109693185119   0.503484949126111   1.0
C10   C   0.499531781692248   0.065448911319677   0.621913223137348   1.0
C11   C   0.565483909446129   0.702860784181439   0.386299983186049   1.0
Ge12   Ge   0.002022172075897   0.294244218370103   0.951583010101906   1.0
N13   N   0.429446788390607   0.886658344821363   0.358676390402998   1.0
N14   N   0.609421833478550   0.807874121932983   0.546530156727869   1.0




# HOIP entry ID:                    0439
# Khazana ID:                       2289
# Organic cation source:            B.Saparov et al., Chem. Rev. 116, 4558 (2016)
# Label:                            Imidazolium Germanium Iodide
# Material class:                   Hybrid organic-inorganic perovskite ( MC_ino )
# Geometry class:                   Bulk crystalline materials ( GC_cry )
# Organic cation chemical formula:  C3H5N2
# Number of atom types:             5
# Total number of atoms:            14
# Atom types:                       C H N  Ge I
# Number of each atom:              3 5 2  1 3
# Bandgap, HSE06 (eV):              3.0993
# Bandgap, GGA (eV):                2.272
# Kpoint for VBM:                   0.5, 0, 0
# Kpoint for CBM:                   0.5, 0.5, 0.5
# Dielectric constant, electronic:  4.4234
# Dielectric constant, ionic:       4.4507
# Dielectric constant, total:       8.8741
# Refractive index:                 2.1032
# Atomization energy (eV/atom):     -4.7678
# Relative energy1 (eV/atom):       0.4938
# Relative energy2 (eV/atom):       0.5989
# Volume of the unit cell (A^3):    267.69
# Density (g/cm^3):                 3.2407
# Tool:                             VASP
# Pseudopotential:                  PAW
# Note:                             ENCUT=400eV, k-spacing_relax=0.20/Angstrom, k-spacing_bandgap=0.15/Angstrom
# Created by:                       C.Kim, T.D.Huan, S.Krishnan, R. Ramprasad