data_1
_audit_creation_method   'Generated by vasp2cif'
_cell_length_a    9.10155481344
_cell_length_b    4.36355245317
_cell_length_c    6.65227747152
_cell_angle_alpha    100.28448497
_cell_angle_beta    93.3492093932
_cell_angle_gamma    90.7588700321

_symmetry_space_group_name_H-M    'P 1'
loop_
_atom_site_label
_atom_site_type_symbol
_atom_site_fract_x
_atom_site_fract_y
_atom_site_fract_z
_atom_site_occupancy
I1   I   0.753487882899269   0.142948455233964   0.988577002076572   1.0
I2   I   0.997605535795481   0.832108746890931   0.465378523533561   1.0
I3   I   0.254064747214494   0.163717452139191   0.027076294073892   1.0
H4   H   0.313767985683626   0.853527675575171   0.378144536910793   1.0
H5   H   0.524852257837459   0.339518152420199   0.760099293352680   1.0
H6   H   0.722070383752713   0.470197347465902   0.530060130969113   1.0
H7   H   0.580711021995856   0.831013661849247   0.274447147235913   1.0
H8   H   0.272994514951115   0.557621666292672   0.669562341362565   1.0
C9   C   0.609957389351566   0.544009974517314   0.519311900816590   1.0
C10   C   0.540830602510394   0.721793148813940   0.394521409065389   1.0
C11   C   0.374776852543061   0.586261496973167   0.600146677084851   1.0
Ge12   Ge   0.996409623327623   0.661281522086121   0.042002609964183   1.0
N13   N   0.504466671987220   0.462771474132177   0.644836554702939   1.0
N14   N   0.395634530150261   0.746099225610008   0.449065578851006   1.0




# HOIP entry ID:                    0440
# Khazana ID:                       2290
# Organic cation source:            B.Saparov et al., Chem. Rev. 116, 4558 (2016)
# Label:                            Imidazolium Germanium Iodide
# Material class:                   Hybrid organic-inorganic perovskite ( MC_ino )
# Geometry class:                   Bulk crystalline materials ( GC_cry )
# Organic cation chemical formula:  C3H5N2
# Number of atom types:             5
# Total number of atoms:            14
# Atom types:                       C H N  Ge I
# Number of each atom:              3 5 2  1 3
# Bandgap, HSE06 (eV):              3.2228
# Bandgap, GGA (eV):                2.3986
# Kpoint for VBM:                   0.5, 0.0556, 0
# Kpoint for CBM:                   0.375, 0, 0.25
# Dielectric constant, electronic:  4.5673
# Dielectric constant, ionic:       35.2918
# Dielectric constant, total:       39.8591
# Refractive index:                 2.1371
# Atomization energy (eV/atom):     -4.7665
# Relative energy1 (eV/atom):       0.4952
# Relative energy2 (eV/atom):       0.6002
# Volume of the unit cell (A^3):    259.43
# Density (g/cm^3):                 3.3439
# Tool:                             VASP
# Pseudopotential:                  PAW
# Note:                             ENCUT=400eV, k-spacing_relax=0.20/Angstrom, k-spacing_bandgap=0.15/Angstrom
# Created by:                       C.Kim, T.D.Huan, S.Krishnan, R. Ramprasad