data_1
_audit_creation_method   'Generated by vasp2cif'
_cell_length_a    4.92070066102
_cell_length_b    5.08503955765
_cell_length_c    5.0753201493
_cell_angle_alpha    76.7995745055
_cell_angle_beta    85.3026118786
_cell_angle_gamma    92.9811554427

_symmetry_space_group_name_H-M    'P 1'
loop_
_atom_site_label
_atom_site_type_symbol
_atom_site_fract_x
_atom_site_fract_y
_atom_site_fract_z
_atom_site_occupancy
C1   C   0.434143709350074   0.578614504904031   0.344301860366329   1.0
C2   C   0.518336123054333   0.357361889396955   0.207903784855802   1.0
H3   H   0.731596617118818   0.395271786221386   0.125022389105858   1.0
H4   H   0.387993106880486   0.355313620698460   0.046872795921210   1.0
H5   H   0.634746403383524   0.399794441843099   0.679803018009771   1.0
H6   H   0.555846544470306   0.716175148253988   0.685009490180299   1.0
H7   H   0.493126269216646   0.159252650500420   0.348126651752786   1.0
H8   H   0.458194470422661   0.776029950552065   0.204924752555293   1.0
H9   H   0.225922953445718   0.544712704384210   0.438702362199706   1.0
H10   H   0.809162117680316   0.676251888056782   0.469739583690412   1.0
F11   F   0.605681644162956   0.016128321687027   0.812807893936991   1.0
F12   F   0.066824001618095   0.628736415448849   0.860431275161410   1.0
F13   F   0.993964406496652   0.964804420329486   0.259595761529283   1.0
N14   N   0.619655725069876   0.590788159177514   0.562315126827798   1.0
Sn15   Sn   0.059515907629553   0.049354098545614   0.825463253907110   1.0




# HOIP entry ID:                    0443
# Khazana ID:                       2293
# Organic cation source:            B.Saparov et al., Chem. Rev. 116, 4558 (2016)
# Label:                            Ethylammonium Tin Fluoride
# Material class:                   Hybrid organic-inorganic perovskite ( MC_ino )
# Geometry class:                   Bulk crystalline materials ( GC_cry )
# Organic cation chemical formula:  CH3CH2NH3
# Number of atom types:             5
# Total number of atoms:            15
# Atom types:                       C H N  Sn F
# Number of each atom:              2 8 1  1 3
# Bandgap, HSE06 (eV):              5.0137
# Bandgap, GGA (eV):                3.9158
# Kpoint for VBM:                   0.5, 0.5, 0.5
# Kpoint for CBM:                   0.5, -0.25, 0.375
# Dielectric constant, electronic:  2.9648
# Dielectric constant, ionic:       4.1576
# Dielectric constant, total:       7.1224
# Refractive index:                 1.7219
# Atomization energy (eV/atom):     -4.7395
# Relative energy1 (eV/atom):       -0.3701
# Relative energy2 (eV/atom):       0.2702
# Volume of the unit cell (A^3):    122.9
# Density (g/cm^3):                 2.9968
# Tool:                             VASP
# Pseudopotential:                  PAW
# Note:                             ENCUT=400eV, k-spacing_relax=0.20/Angstrom, k-spacing_bandgap=0.15/Angstrom
# Created by:                       C.Kim, T.D.Huan, S.Krishnan, R. Ramprasad