data_1
_audit_creation_method   'Generated by vasp2cif'
_cell_length_a    5.29276836681
_cell_length_b    4.76818122651
_cell_length_c    5.05635413086
_cell_angle_alpha    80.376040806
_cell_angle_beta    73.3198883135
_cell_angle_gamma    85.3741063203

_symmetry_space_group_name_H-M    'P 1'
loop_
_atom_site_label
_atom_site_type_symbol
_atom_site_fract_x
_atom_site_fract_y
_atom_site_fract_z
_atom_site_occupancy
C1   C   0.552248855267791   0.786013888158415   0.324343314993719   1.0
C2   C   0.510347268730520   0.568244606648669   0.158195788408598   1.0
H3   H   0.693846874435366   0.518116983418231   0.009299853260089   1.0
H4   H   0.369060063759818   0.652798903016794   0.044499988839433   1.0
H5   H   0.718745098178857   0.479901240233097   0.577533941601516   1.0
H6   H   0.783318310468786   0.821582368542657   0.589871538332510   1.0
H7   H   0.436228367744533   0.371756640583406   0.290119959603075   1.0
H8   H   0.613856179971215   0.986299187946798   0.193649463386720   1.0
H9   H   0.374884167592036   0.821991247201765   0.488237672850197   1.0
H10   H   0.940231290984222   0.664855477979700   0.312397703036311   1.0
F11   F   0.554116436171867   0.153327693326752   0.757945294178000   1.0
F12   F   0.063425984060693   0.767864910616225   0.880606188464398   1.0
F13   F   0.059004259755426   0.157355394060239   0.260118471252028   1.0
N14   N   0.764982005920281   0.680033071357727   0.464058195094687   1.0
Sn15   Sn   0.129174836958640   0.219658386909565   0.820842626698777   1.0




# HOIP entry ID:                    0444
# Khazana ID:                       2294
# Organic cation source:            B.Saparov et al., Chem. Rev. 116, 4558 (2016)
# Label:                            Ethylammonium Tin Fluoride
# Material class:                   Hybrid organic-inorganic perovskite ( MC_ino )
# Geometry class:                   Bulk crystalline materials ( GC_cry )
# Organic cation chemical formula:  CH3CH2NH3
# Number of atom types:             5
# Total number of atoms:            15
# Atom types:                       C H N  Sn F
# Number of each atom:              2 8 1  1 3
# Bandgap, HSE06 (eV):              4.8672
# Bandgap, GGA (eV):                3.7489
# Kpoint for VBM:                   0.5, 0.5, 0.5
# Kpoint for CBM:                   0.5, 0.5, 0.4211
# Dielectric constant, electronic:  3.0204
# Dielectric constant, ionic:       3.8143
# Dielectric constant, total:       6.8347
# Refractive index:                 1.7379
# Atomization energy (eV/atom):     -4.7354
# Relative energy1 (eV/atom):       -0.3661
# Relative energy2 (eV/atom):       0.2743
# Volume of the unit cell (A^3):    120.44
# Density (g/cm^3):                 3.0581
# Tool:                             VASP
# Pseudopotential:                  PAW
# Note:                             ENCUT=400eV, k-spacing_relax=0.20/Angstrom, k-spacing_bandgap=0.15/Angstrom
# Created by:                       C.Kim, T.D.Huan, S.Krishnan, R. Ramprasad