data_1
_audit_creation_method   'Generated by vasp2cif'
_cell_length_a    5.03200810549
_cell_length_b    3.73268572219
_cell_length_c    7.12237135792
_cell_angle_alpha    101.930558444
_cell_angle_beta    101.829067679
_cell_angle_gamma    102.563654956

_symmetry_space_group_name_H-M    'P 1'
loop_
_atom_site_label
_atom_site_type_symbol
_atom_site_fract_x
_atom_site_fract_y
_atom_site_fract_z
_atom_site_occupancy
C1   C   0.401815750069410   0.867646402812980   0.623022673081863   1.0
C2   C   0.569157138751507   0.648507550601558   0.513992287060894   1.0
H3   H   0.439702186916470   0.412797215744497   0.388635021570948   1.0
H4   H   0.704114688596050   0.843532710319501   0.456614708798355   1.0
H5   H   0.087071363572257   0.409802596215400   0.628683292935783   1.0
H6   H   0.123161363334248   0.813620264818340   0.800476274295811   1.0
H7   H   0.542196356790399   0.111327506064455   0.736852454564321   1.0
H8   H   0.699521986304198   0.537381237411147   0.615477392208078   1.0
H9   H   0.253627697256803   0.959943591675959   0.522724976682213   1.0
H10   H   0.358594083432578   0.562536064820272   0.840523117197314   1.0
F11   F   0.543191724016260   0.459133129908217   0.039461371789045   1.0
F12   F   0.941376890309520   0.084604875284647   0.904218972742882   1.0
F13   F   0.918761781242594   0.232012348009739   0.341456821535765   1.0
N14   N   0.231309076421127   0.642375242348095   0.730491116548777   1.0
Sn15   Sn   0.988997912986655   0.606309263965152   0.141889518987888   1.0




# HOIP entry ID:                    0446
# Khazana ID:                       2296
# Organic cation source:            B.Saparov et al., Chem. Rev. 116, 4558 (2016)
# Label:                            Ethylammonium Tin Fluoride
# Material class:                   Hybrid organic-inorganic perovskite ( MC_ino )
# Geometry class:                   Bulk crystalline materials ( GC_cry )
# Organic cation chemical formula:  CH3CH2NH3
# Number of atom types:             5
# Total number of atoms:            15
# Atom types:                       C H N  Sn F
# Number of each atom:              2 8 1  1 3
# Bandgap, HSE06 (eV):              5.0376
# Bandgap, GGA (eV):                3.8999
# Kpoint for VBM:                   0.5, 0.5, 0.5
# Kpoint for CBM:                   0, 0.0455, 0.5
# Dielectric constant, electronic:  2.8937
# Dielectric constant, ionic:       5.734
# Dielectric constant, total:       8.6277
# Refractive index:                 1.7011
# Atomization energy (eV/atom):     -4.7296
# Relative energy1 (eV/atom):       -0.3603
# Relative energy2 (eV/atom):       0.28
# Volume of the unit cell (A^3):    123.3
# Density (g/cm^3):                 2.9871
# Tool:                             VASP
# Pseudopotential:                  PAW
# Note:                             ENCUT=400eV, k-spacing_relax=0.20/Angstrom, k-spacing_bandgap=0.15/Angstrom
# Created by:                       C.Kim, T.D.Huan, S.Krishnan, R. Ramprasad