data_1
_audit_creation_method   'Generated by vasp2cif'
_cell_length_a    4.69078511664
_cell_length_b    3.62963239243
_cell_length_c    8.19103648586
_cell_angle_alpha    66.9192927798
_cell_angle_beta    105.165800347
_cell_angle_gamma    105.251527093

_symmetry_space_group_name_H-M    'P 1'
loop_
_atom_site_label
_atom_site_type_symbol
_atom_site_fract_x
_atom_site_fract_y
_atom_site_fract_z
_atom_site_occupancy
C1   C   0.281025578490223   0.447655135682894   0.584887752947715   1.0
C2   C   0.557102204762160   0.432935652539733   0.525402797844293   1.0
H3   H   0.496326408269823   0.373790314529323   0.398910747581233   1.0
H4   H   0.711439533808424   0.722603280585240   0.503090104001771   1.0
H5   H   0.390125916138054   0.176934963383104   0.867477134629034   1.0
H6   H   0.195443782795564   0.553722921876989   0.803723533869174   1.0
H7   H   0.187772286133445   0.719033208599114   0.497842037197344   1.0
H8   H   0.675504646787346   0.195906830767093   0.626522426851835   1.0
H9   H   0.104256808973709   0.186229297585442   0.585128423786934   1.0
H10   H   0.564947712186381   0.641610245808351   0.794718539869628   1.0
F11   F   0.532184809328001   0.787362688674023   0.047272446129014   1.0
F12   F   0.940887949551353   0.703153717131578   0.870738525634508   1.0
F13   F   0.890566924609800   0.237121546209671   0.289127142323423   1.0
N14   N   0.358639523768055   0.459933851495855   0.772364949518455   1.0
Sn15   Sn   0.009595914397579   0.877776345131629   0.126753437815651   1.0




# HOIP entry ID:                    0447
# Khazana ID:                       2297
# Organic cation source:            B.Saparov et al., Chem. Rev. 116, 4558 (2016)
# Label:                            Ethylammonium Tin Fluoride
# Material class:                   Hybrid organic-inorganic perovskite ( MC_ino )
# Geometry class:                   Bulk crystalline materials ( GC_cry )
# Organic cation chemical formula:  CH3CH2NH3
# Number of atom types:             5
# Total number of atoms:            15
# Atom types:                       C H N  Sn F
# Number of each atom:              2 8 1  1 3
# Bandgap, HSE06 (eV):              5.1324
# Bandgap, GGA (eV):                3.9809
# Kpoint for VBM:                   0.4474, 0.4474, 0.4474
# Kpoint for CBM:                   0.0556, 0, 0.5
# Dielectric constant, electronic:  2.9251
# Dielectric constant, ionic:       4.934
# Dielectric constant, total:       7.8591
# Refractive index:                 1.7103
# Atomization energy (eV/atom):     -4.7384
# Relative energy1 (eV/atom):       -0.3691
# Relative energy2 (eV/atom):       0.2713
# Volume of the unit cell (A^3):    121.79
# Density (g/cm^3):                 3.0242
# Tool:                             VASP
# Pseudopotential:                  PAW
# Note:                             ENCUT=400eV, k-spacing_relax=0.20/Angstrom, k-spacing_bandgap=0.15/Angstrom
# Created by:                       C.Kim, T.D.Huan, S.Krishnan, R. Ramprasad