data_1
_audit_creation_method   'Generated by vasp2cif'
_cell_length_a    7.33395669973
_cell_length_b    3.89600328512
_cell_length_c    4.85684538978
_cell_angle_alpha    115.096356528
_cell_angle_beta    76.241693265
_cell_angle_gamma    103.506229824

_symmetry_space_group_name_H-M    'P 1'
loop_
_atom_site_label
_atom_site_type_symbol
_atom_site_fract_x
_atom_site_fract_y
_atom_site_fract_z
_atom_site_occupancy
C1   C   0.571782227309086   0.470330411606490   0.444378979128885   1.0
C2   C   0.698548739833875   0.836715018758142   0.605025070564679   1.0
H3   H   0.802142083690590   0.767633753207591   0.693738665905123   1.0
H4   H   0.777529473953720   0.976249317819004   0.450718717973871   1.0
H5   H   0.466048951551287   0.637140296301503   0.151472169196481   1.0
H6   H   0.340413144159733   0.747437286134357   0.496104681427298   1.0
H7   H   0.653154095345457   0.270386385165509   0.248590581747756   1.0
H8   H   0.613831237322607   0.035303103192227   0.795040896910059   1.0
H9   H   0.497826475366651   0.333027236574615   0.601069243783691   1.0
H10   H   0.326528140463225   0.291618327166965   0.242584519014635   1.0
F11   F   0.319286580980680   0.807188062631568   0.981329402840053   1.0
F12   F   0.021981012455221   0.311914409067832   0.271710624119464   1.0
F13   F   0.171314384207292   0.063730438125525   0.640123010971507   1.0
N14   N   0.419374366473619   0.543005091644055   0.327902738622655   1.0
Sn15   Sn   0.032649086887034   0.560400862604752   0.937630697793793   1.0




# HOIP entry ID:                    0448
# Khazana ID:                       2298
# Organic cation source:            B.Saparov et al., Chem. Rev. 116, 4558 (2016)
# Label:                            Ethylammonium Tin Fluoride
# Material class:                   Hybrid organic-inorganic perovskite ( MC_ino )
# Geometry class:                   Bulk crystalline materials ( GC_cry )
# Organic cation chemical formula:  CH3CH2NH3
# Number of atom types:             5
# Total number of atoms:            15
# Atom types:                       C H N  Sn F
# Number of each atom:              2 8 1  1 3
# Bandgap, HSE06 (eV):              5.4738
# Bandgap, GGA (eV):                4.3258
# Kpoint for VBM:                   -0.2, 0.4545, 0.45
# Kpoint for CBM:                   -0.4, 0.0909, 0.05
# Dielectric constant, electronic:  2.9576
# Dielectric constant, ionic:       4.6641
# Dielectric constant, total:       7.6217
# Refractive index:                 1.7198
# Atomization energy (eV/atom):     -4.7293
# Relative energy1 (eV/atom):       -0.36
# Relative energy2 (eV/atom):       0.2804
# Volume of the unit cell (A^3):    120.67
# Density (g/cm^3):                 3.0522
# Tool:                             VASP
# Pseudopotential:                  PAW
# Note:                             ENCUT=400eV, k-spacing_relax=0.20/Angstrom, k-spacing_bandgap=0.15/Angstrom
# Created by:                       C.Kim, T.D.Huan, S.Krishnan, R. Ramprasad