data_1
_audit_creation_method   'Generated by vasp2cif'
_cell_length_a    4.21771802259
_cell_length_b    3.54652825751
_cell_length_c    8.17254739174
_cell_angle_alpha    97.7009725744
_cell_angle_beta    86.0048019803
_cell_angle_gamma    86.0300385226

_symmetry_space_group_name_H-M    'P 1'
loop_
_atom_site_label
_atom_site_type_symbol
_atom_site_fract_x
_atom_site_fract_y
_atom_site_fract_z
_atom_site_occupancy
C1   C   0.422514001554553   0.087687302045687   0.467703262974275   1.0
C2   C   0.668443131644189   0.958859278279135   0.578867083491090   1.0
H3   H   0.825775384310312   0.719082496934057   0.516935910876292   1.0
H4   H   0.813100148290481   0.188915689717824   0.621114416032114   1.0
H5   H   0.392346645885610   0.324889945735535   0.250662592269251   1.0
H6   H   0.629820136123904   0.915930132700481   0.221647500689635   1.0
H7   H   0.253186833407121   0.877812547058589   0.439056574859038   1.0
H8   H   0.548495441572946   0.863423774874491   0.686304718179485   1.0
H9   H   0.291266183042751   0.350233935545113   0.525964069929877   1.0
H10   H   0.765212993017130   0.315705762028443   0.307220466609294   1.0
F11   F   0.589395846044020   0.546422072248902   0.997047057404075   1.0
F12   F   0.054925667010572   0.599309148328409   0.223719967397628   1.0
F13   F   0.111653031246561   0.597105431110087   0.762129551239212   1.0
N14   N   0.564536274245647   0.163432099204783   0.301456659825462   1.0
Sn15   Sn   0.099618282604311   0.253340384188604   0.955040168223235   1.0




# HOIP entry ID:                    0449
# Khazana ID:                       2299
# Organic cation source:            B.Saparov et al., Chem. Rev. 116, 4558 (2016)
# Label:                            Ethylammonium Tin Fluoride
# Material class:                   Hybrid organic-inorganic perovskite ( MC_ino )
# Geometry class:                   Bulk crystalline materials ( GC_cry )
# Organic cation chemical formula:  CH3CH2NH3
# Number of atom types:             5
# Total number of atoms:            15
# Atom types:                       C H N  Sn F
# Number of each atom:              2 8 1  1 3
# Bandgap, HSE06 (eV):              4.483
# Bandgap, GGA (eV):                3.4468
# Kpoint for VBM:                   0, 0.5, 0
# Kpoint for CBM:                   0.5, -0.0455, 0.1
# Dielectric constant, electronic:  3.0202
# Dielectric constant, ionic:       5.7023
# Dielectric constant, total:       8.7226
# Refractive index:                 1.7379
# Atomization energy (eV/atom):     -4.7243
# Relative energy1 (eV/atom):       -0.355
# Relative energy2 (eV/atom):       0.2854
# Volume of the unit cell (A^3):    120.47
# Density (g/cm^3):                 3.0573
# Tool:                             VASP
# Pseudopotential:                  PAW
# Note:                             ENCUT=400eV, k-spacing_relax=0.20/Angstrom, k-spacing_bandgap=0.15/Angstrom
# Created by:                       C.Kim, T.D.Huan, S.Krishnan, R. Ramprasad