data_1
_audit_creation_method   'Generated by vasp2cif'
_cell_length_a    4.68466409586
_cell_length_b    3.6242491803
_cell_length_c    7.57642457773
_cell_angle_alpha    92.9348149661
_cell_angle_beta    80.6291671843
_cell_angle_gamma    74.2243009742

_symmetry_space_group_name_H-M    'P 1'
loop_
_atom_site_label
_atom_site_type_symbol
_atom_site_fract_x
_atom_site_fract_y
_atom_site_fract_z
_atom_site_occupancy
C1   C   0.366116597173367   0.613594550931261   0.495063544097555   1.0
C2   C   0.647062970994888   0.680810109878891   0.549709801685971   1.0
H3   H   0.801689434823800   0.409849944294003   0.570609840507188   1.0
H4   H   0.764636870826507   0.814023652128810   0.446881662734675   1.0
H5   H   0.644135855850699   0.207168003808768   0.283214273483757   1.0
H6   H   0.467886208194742   0.604227400009215   0.213313546863631   1.0
H7   H   0.274058027582825   0.430199819737375   0.583348088544625   1.0
H8   H   0.590421633570202   0.866829324363948   0.675617042390520   1.0
H9   H   0.188707747287914   0.878661760708205   0.497320211457343   1.0
H10   H   0.271439015613268   0.294388777743301   0.279050047892270   1.0
F11   F   0.616845866711628   0.811138393902311   0.034136912014006   1.0
F12   F   0.023302815198761   0.073843979713544   0.207142160532165   1.0
F13   F   0.973417370508045   0.121990463383568   0.791585407094281   1.0
N14   N   0.437427622081543   0.415243974162486   0.308168725421538   1.0
Sn15   Sn   0.095791963581782   0.638549845234323   0.952478735280486   1.0




# HOIP entry ID:                    0450
# Khazana ID:                       2300
# Organic cation source:            B.Saparov et al., Chem. Rev. 116, 4558 (2016)
# Label:                            Ethylammonium Tin Fluoride
# Material class:                   Hybrid organic-inorganic perovskite ( MC_ino )
# Geometry class:                   Bulk crystalline materials ( GC_cry )
# Organic cation chemical formula:  CH3CH2NH3
# Number of atom types:             5
# Total number of atoms:            15
# Atom types:                       C H N  Sn F
# Number of each atom:              2 8 1  1 3
# Bandgap, HSE06 (eV):              5.1428
# Bandgap, GGA (eV):                3.9826
# Kpoint for VBM:                   0.5, 0.5, 0.4211
# Kpoint for CBM:                   0.0556, 0, 0.5
# Dielectric constant, electronic:  2.9303
# Dielectric constant, ionic:       5.1715
# Dielectric constant, total:       8.1018
# Refractive index:                 1.7118
# Atomization energy (eV/atom):     -4.7376
# Relative energy1 (eV/atom):       -0.3683
# Relative energy2 (eV/atom):       0.2721
# Volume of the unit cell (A^3):    121.52
# Density (g/cm^3):                 3.0309
# Tool:                             VASP
# Pseudopotential:                  PAW
# Note:                             ENCUT=400eV, k-spacing_relax=0.20/Angstrom, k-spacing_bandgap=0.15/Angstrom
# Created by:                       C.Kim, T.D.Huan, S.Krishnan, R. Ramprasad