data_1
_audit_creation_method   'Generated by vasp2cif'
_cell_length_a    8.15452201281
_cell_length_b    3.7714405417
_cell_length_c    3.98007332087
_cell_angle_alpha    87.9259807336
_cell_angle_beta    86.0262364129
_cell_angle_gamma    86.3623072556

_symmetry_space_group_name_H-M    'P 1'
loop_
_atom_site_label
_atom_site_type_symbol
_atom_site_fract_x
_atom_site_fract_y
_atom_site_fract_z
_atom_site_occupancy
C1   C   0.373574755284437   0.781781477024495   0.365194879693668   1.0
C2   C   0.511976866933324   0.534891031656429   0.488045336096320   1.0
H3   H   0.546444014703560   0.320216232988990   0.317915013213039   1.0
H4   H   0.617197774625858   0.694719432705732   0.506813664100456   1.0
H5   H   0.208333256651798   0.436834116678540   0.165468883856768   1.0
H6   H   0.116765232877647   0.797283345177433   0.347137006818208   1.0
H7   H   0.349036670159315   0.996389188873884   0.537129294832752   1.0
H8   H   0.479986369621408   0.420764854105869   0.738140281657564   1.0
H9   H   0.402321605808275   0.887227951152475   0.112094420891978   1.0
H10   H   0.190674523319764   0.453796027636791   0.582590324170667   1.0
F11   F   0.914617542261787   0.048423610266859   0.418512686386663   1.0
F12   F   0.143228207261281   0.141739729445383   0.888956878571669   1.0
F13   F   0.677257212996302   0.987228506634210   0.953107117889338   1.0
N14   N   0.212634346863780   0.606493289053326   0.363792949960050   1.0
Sn15   Sn   0.864131620631305   0.349551206599692   0.917651261860826   1.0




# HOIP entry ID:                    0451
# Khazana ID:                       2301
# Organic cation source:            B.Saparov et al., Chem. Rev. 116, 4558 (2016)
# Label:                            Ethylammonium Tin Fluoride
# Material class:                   Hybrid organic-inorganic perovskite ( MC_ino )
# Geometry class:                   Bulk crystalline materials ( GC_cry )
# Organic cation chemical formula:  CH3CH2NH3
# Number of atom types:             5
# Total number of atoms:            15
# Atom types:                       C H N  Sn F
# Number of each atom:              2 8 1  1 3
# Bandgap, HSE06 (eV):              4.3477
# Bandgap, GGA (eV):                3.2316
# Kpoint for VBM:                   0.5, 0.5, 0
# Kpoint for CBM:                   0.1, 0.0455, 0.5
# Dielectric constant, electronic:  2.9582
# Dielectric constant, ionic:       4.0959
# Dielectric constant, total:       7.0541
# Refractive index:                 1.7199
# Atomization energy (eV/atom):     -4.7274
# Relative energy1 (eV/atom):       -0.3581
# Relative energy2 (eV/atom):       0.2822
# Volume of the unit cell (A^3):    121.8
# Density (g/cm^3):                 3.0239
# Tool:                             VASP
# Pseudopotential:                  PAW
# Note:                             ENCUT=400eV, k-spacing_relax=0.20/Angstrom, k-spacing_bandgap=0.15/Angstrom
# Created by:                       C.Kim, T.D.Huan, S.Krishnan, R. Ramprasad