data_1
_audit_creation_method   'Generated by vasp2cif'
_cell_length_a    6.82701010085
_cell_length_b    4.2589215859
_cell_length_c    4.4141359338
_cell_angle_alpha    84.9217913755
_cell_angle_beta    99.0097920934
_cell_angle_gamma    88.929944544

_symmetry_space_group_name_H-M    'P 1'
loop_
_atom_site_label
_atom_site_type_symbol
_atom_site_fract_x
_atom_site_fract_y
_atom_site_fract_z
_atom_site_occupancy
C1   C   0.639936854053566   0.618989104087760   0.484188943566210   1.0
C2   C   0.480589511491999   0.660820594754043   0.684082411881455   1.0
H3   H   0.333814675737464   0.637949390419053   0.552265159174901   1.0
H4   H   0.501358258601798   0.477307291518095   0.875677814867039   1.0
H5   H   0.716522595391346   0.159595838152356   0.648366906079410   1.0
H6   H   0.747792710720354   0.226795902168796   0.282746705339179   1.0
H7   H   0.603937290103580   0.746949276221770   0.258578679956265   1.0
H8   H   0.480512854632650   0.888019152970578   0.777053912786599   1.0
H9   H   0.785862876807322   0.687915779614428   0.590204660989940   1.0
H10   H   0.516899853445210   0.196453361638184   0.356073597350758   1.0
F11   F   0.069969170459238   0.272676346305474   0.539175629800027   1.0
F12   F   0.851558331672209   0.078389393459680   0.003615413908207   1.0
F13   F   0.317449793970340   0.074764743014811   0.124278301225566   1.0
N14   N   0.655759142328996   0.278037693685789   0.438577264094782   1.0
Sn15   Sn   0.088726080583967   0.428466131989296   0.029434598979648   1.0




# HOIP entry ID:                    0453
# Khazana ID:                       2303
# Organic cation source:            B.Saparov et al., Chem. Rev. 116, 4558 (2016)
# Label:                            Ethylammonium Tin Fluoride
# Material class:                   Hybrid organic-inorganic perovskite ( MC_ino )
# Geometry class:                   Bulk crystalline materials ( GC_cry )
# Organic cation chemical formula:  CH3CH2NH3
# Number of atom types:             5
# Total number of atoms:            15
# Atom types:                       C H N  Sn F
# Number of each atom:              2 8 1  1 3
# Bandgap, HSE06 (eV):              4.8596
# Bandgap, GGA (eV):                3.7635
# Kpoint for VBM:                   0.5, 0.5, 0.5
# Kpoint for CBM:                   0.25, 0, 0.2222
# Dielectric constant, electronic:  2.8424
# Dielectric constant, ionic:       4.964
# Dielectric constant, total:       7.8065
# Refractive index:                 1.686
# Atomization energy (eV/atom):     -4.7312
# Relative energy1 (eV/atom):       -0.3618
# Relative energy2 (eV/atom):       0.2785
# Volume of the unit cell (A^3):    126.19
# Density (g/cm^3):                 2.9187
# Tool:                             VASP
# Pseudopotential:                  PAW
# Note:                             ENCUT=400eV, k-spacing_relax=0.20/Angstrom, k-spacing_bandgap=0.15/Angstrom
# Created by:                       C.Kim, T.D.Huan, S.Krishnan, R. Ramprasad