data_1
_audit_creation_method   'Generated by vasp2cif'
_cell_length_a    6.46842098801
_cell_length_b    4.61004173803
_cell_length_c    5.15609898361
_cell_angle_alpha    106.178825594
_cell_angle_beta    77.5422610275
_cell_angle_gamma    93.6618497709

_symmetry_space_group_name_H-M    'P 1'
loop_
_atom_site_label
_atom_site_type_symbol
_atom_site_fract_x
_atom_site_fract_y
_atom_site_fract_z
_atom_site_occupancy
C1   C   0.396371444231306   0.722466715931034   0.587709343495334   1.0
C2   C   0.376233534684062   0.452271551107202   0.703073353521148   1.0
C3   C   0.541657878683196   0.477729404045498   0.877731211174584   1.0
H4   H   0.529980039235646   0.699083924942414   0.027538644780250   1.0
H5   H   0.520071483483598   0.305742452077496   0.989309739772452   1.0
H6   H   0.401279861088788   0.248963783537853   0.530616450420375   1.0
H7   H   0.215712601428436   0.441145206515856   0.822684285717550   1.0
H8   H   0.210148930915025   0.498610275411210   0.305727438882272   1.0
H9   H   0.242304675252683   0.863383690504300   0.315014235815937   1.0
H10   H   0.702334451303237   0.460379635564351   0.755514473783933   1.0
H11   H   0.378364048985510   0.928476244850295   0.754197477340512   1.0
H12   H   0.549305975206003   0.723790887172193   0.449337936103156   1.0
H13   H   0.079424184771568   0.771678908851463   0.569824344446324   1.0
F14   F   0.176284396318671   0.119530903181449   0.153700059987770   1.0
F15   F   0.910454509223683   0.604260620244197   0.139712126243175   1.0
F16   F   0.876940306986242   0.983910452996021   0.757968390701542   1.0
N17   N   0.224054179557910   0.712327088659436   0.433306563099848   1.0
Sn18   Sn   0.839477498644406   0.098138254407694   0.192783924713908   1.0




# HOIP entry ID:                    0455
# Khazana ID:                       2305
# Organic cation source:            S.Kataoka et al., J. Am. Chem. Soc. 137, 4158 (2015)
# Label:                            Propylammonium Tin Fluoride
# Material class:                   Hybrid organic-inorganic perovskite ( MC_ino )
# Geometry class:                   Bulk crystalline materials ( GC_cry )
# Organic cation chemical formula:  CH3CH2CH2NH3
# Number of atom types:             5
# Total number of atoms:            18
# Atom types:                       C H N  Sn F
# Number of each atom:              3 10 1  1 3
# Bandgap, HSE06 (eV):              5.0443
# Bandgap, GGA (eV):                3.9124
# Kpoint for VBM:                   0.5, 0.5, 0.5
# Kpoint for CBM:                   0.5, 0.0556, 0.5
# Dielectric constant, electronic:  2.8922
# Dielectric constant, ionic:       8.5686
# Dielectric constant, total:       11.4608
# Refractive index:                 1.7006
# Atomization energy (eV/atom):     -4.8014
# Relative energy1 (eV/atom):       -0.3686
# Relative energy2 (eV/atom):       0.1651
# Volume of the unit cell (A^3):    144.19
# Density (g/cm^3):                 2.7159
# Tool:                             VASP
# Pseudopotential:                  PAW
# Note:                             ENCUT=400eV, k-spacing_relax=0.20/Angstrom, k-spacing_bandgap=0.15/Angstrom
# Created by:                       C.Kim, T.D.Huan, S.Krishnan, R. Ramprasad