data_1
_audit_creation_method   'Generated by vasp2cif'
_cell_length_a    4.91941821965
_cell_length_b    5.19457758875
_cell_length_c    6.21491454968
_cell_angle_alpha    109.372631993
_cell_angle_beta    77.1129715559
_cell_angle_gamma    94.8380340432

_symmetry_space_group_name_H-M    'P 1'
loop_
_atom_site_label
_atom_site_type_symbol
_atom_site_fract_x
_atom_site_fract_y
_atom_site_fract_z
_atom_site_occupancy
C1   C   0.509219627184151   0.622373086534422   0.614092345367877   1.0
C2   C   0.374942007032232   0.417687755546622   0.734192336388435   1.0
C3   C   0.587579632940413   0.346424854964346   0.849565042519876   1.0
H4   H   0.663379218464464   0.529110481610451   0.968468022671763   1.0
H5   H   0.499992731091096   0.208255796357742   0.946286602600267   1.0
H6   H   0.311003048934045   0.234122675672811   0.606971540832158   1.0
H7   H   0.187993702748397   0.502669185570155   0.862586867338341   1.0
H8   H   0.322515503794573   0.462495564260768   0.326037929300911   1.0
H9   H   0.430474407385249   0.781756532622941   0.357275305419584   1.0
H10   H   0.769577699865873   0.245191932854960   0.720851161724031   1.0
H11   H   0.526096974809035   0.823375927543446   0.738393484443453   1.0
H12   H   0.717042277314506   0.561718502854656   0.513445721901937   1.0
H13   H   0.149168272350439   0.721859014411410   0.540909200482556   1.0
F14   F   0.501053642939589   0.021298980145281   0.215295907688064   1.0
F15   F   0.944140158261596   0.696551724174569   0.224852495396026   1.0
F16   F   0.981291668822205   0.909917377734060   0.826154157579609   1.0
N17   N   0.343504003550107   0.648519771380844   0.447301369321729   1.0
Sn18   Sn   0.948965422512126   0.080940835760424   0.183510509023579   1.0




# HOIP entry ID:                    0456
# Khazana ID:                       2306
# Organic cation source:            S.Kataoka et al., J. Am. Chem. Soc. 137, 4158 (2015)
# Label:                            Propylammonium Tin Fluoride
# Material class:                   Hybrid organic-inorganic perovskite ( MC_ino )
# Geometry class:                   Bulk crystalline materials ( GC_cry )
# Organic cation chemical formula:  CH3CH2CH2NH3
# Number of atom types:             5
# Total number of atoms:            18
# Atom types:                       C H N  Sn F
# Number of each atom:              3 10 1  1 3
# Bandgap, HSE06 (eV):              5.1684
# Bandgap, GGA (eV):                4.0266
# Kpoint for VBM:                   0.5, 0.5, 0
# Kpoint for CBM:                   -0.3125, -0.4375, 0.2857
# Dielectric constant, electronic:  2.8355
# Dielectric constant, ionic:       2.5527
# Dielectric constant, total:       5.3881
# Refractive index:                 1.6839
# Atomization energy (eV/atom):     -4.7958
# Relative energy1 (eV/atom):       -0.3629
# Relative energy2 (eV/atom):       0.1707
# Volume of the unit cell (A^3):    146.04
# Density (g/cm^3):                 2.6815
# Tool:                             VASP
# Pseudopotential:                  PAW
# Note:                             ENCUT=400eV, k-spacing_relax=0.20/Angstrom, k-spacing_bandgap=0.15/Angstrom
# Created by:                       C.Kim, T.D.Huan, S.Krishnan, R. Ramprasad