data_1
_audit_creation_method   'Generated by vasp2cif'
_cell_length_a    5.07946789214
_cell_length_b    5.34621422286
_cell_length_c    5.48768917702
_cell_angle_alpha    75.7201130262
_cell_angle_beta    90.0096533814
_cell_angle_gamma    85.1252159353

_symmetry_space_group_name_H-M    'P 1'
loop_
_atom_site_label
_atom_site_type_symbol
_atom_site_fract_x
_atom_site_fract_y
_atom_site_fract_z
_atom_site_occupancy
C1   C   0.600275029077132   0.627466621778026   0.380561476220109   1.0
C2   C   0.655497905548025   0.414283989567743   0.245028492845236   1.0
C3   C   0.405268472070908   0.287968399846761   0.208324579308183   1.0
H4   H   0.242226339059080   0.430937275266672   0.126201009260498   1.0
H5   H   0.440012944028212   0.155212122146551   0.088888893421959   1.0
H6   H   0.807732484413371   0.267868005568715   0.344056272458872   1.0
H7   H   0.742595159926083   0.498816033669137   0.064961887719562   1.0
H8   H   0.586022903692019   0.353608948886269   0.725846586602756   1.0
H9   H   0.286177999773372   0.483970144023793   0.624645087420006   1.0
H10   H   0.338102503415385   0.174890619454445   0.387380568859840   1.0
H11   H   0.778498735451628   0.711634942979032   0.414418135129189   1.0
H12   H   0.456951126222123   0.777802425376365   0.276796871937400   1.0
H13   H   0.496401709542170   0.658372622118819   0.736233925298912   1.0
F14   F   0.588818365981254   0.965178240436494   0.800212028315137   1.0
F15   F   0.996129359386416   0.344362315710846   0.748008065901629   1.0
F16   F   0.039646023217777   0.907357602343801   0.185637002288324   1.0
N17   N   0.481497998018632   0.522972265023455   0.633235141786429   1.0
Sn18   Sn   0.021154941176448   0.935997425803158   0.802943975226114   1.0




# HOIP entry ID:                    0457
# Khazana ID:                       2307
# Organic cation source:            S.Kataoka et al., J. Am. Chem. Soc. 137, 4158 (2015)
# Label:                            Propylammonium Tin Fluoride
# Material class:                   Hybrid organic-inorganic perovskite ( MC_ino )
# Geometry class:                   Bulk crystalline materials ( GC_cry )
# Organic cation chemical formula:  CH3CH2CH2NH3
# Number of atom types:             5
# Total number of atoms:            18
# Atom types:                       C H N  Sn F
# Number of each atom:              3 10 1  1 3
# Bandgap, HSE06 (eV):              5.1384
# Bandgap, GGA (eV):                4.0218
# Kpoint for VBM:                   0.5, 0.5, 0.5
# Kpoint for CBM:                   0.5, 0.5, 0
# Dielectric constant, electronic:  2.8904
# Dielectric constant, ionic:       2.6081
# Dielectric constant, total:       5.4986
# Refractive index:                 1.7001
# Atomization energy (eV/atom):     -4.7938
# Relative energy1 (eV/atom):       -0.3609
# Relative energy2 (eV/atom):       0.1727
# Volume of the unit cell (A^3):    143.86
# Density (g/cm^3):                 2.7221
# Tool:                             VASP
# Pseudopotential:                  PAW
# Note:                             ENCUT=400eV, k-spacing_relax=0.20/Angstrom, k-spacing_bandgap=0.15/Angstrom
# Created by:                       C.Kim, T.D.Huan, S.Krishnan, R. Ramprasad