data_1
_audit_creation_method   'Generated by vasp2cif'
_cell_length_a    4.86049003853
_cell_length_b    5.57854686619
_cell_length_c    5.55093961775
_cell_angle_alpha    78.523583393
_cell_angle_beta    79.2738652447
_cell_angle_gamma    87.1577399395

_symmetry_space_group_name_H-M    'P 1'
loop_
_atom_site_label
_atom_site_type_symbol
_atom_site_fract_x
_atom_site_fract_y
_atom_site_fract_z
_atom_site_occupancy
C1   C   0.477625937067188   0.592417193946225   0.412253949634611   1.0
C2   C   0.533093260547282   0.471787503194186   0.186346236577926   1.0
C3   C   0.454200030550624   0.204411701601984   0.254601842935145   1.0
H4   H   0.229290644348573   0.184640298079117   0.325674334003338   1.0
H5   H   0.503547512579395   0.118643030769462   0.092738440241952   1.0
H6   H   0.754119326133136   0.489976949332103   0.098403279247918   1.0
H7   H   0.407500410899360   0.567887962089131   0.052561729671908   1.0
H8   H   0.688335566965684   0.321987147880513   0.647780330220918   1.0
H9   H   0.668475984008303   0.600740608950822   0.719494599774301   1.0
H10   H   0.571597215617707   0.106786296255301   0.393850301410758   1.0
H11   H   0.494919294056771   0.788107032420690   0.361209508303276   1.0
H12   H   0.277031123810104   0.541918680135915   0.529311630480962   1.0
H13   H   0.886271640119013   0.559098894008699   0.467451698091608   1.0
F14   F   0.672464390149386   0.981541590704545   0.772721044645280   1.0
F15   F   0.089626035263535   0.305527642224568   0.856095294575702   1.0
F16   F   0.999366031933882   0.848342177126924   0.238924415713690   1.0
N17   N   0.694116405757995   0.507734177940563   0.574905799679577   1.0
Sn18   Sn   0.105419190191988   0.930851113339067   0.845215564791111   1.0




# HOIP entry ID:                    0458
# Khazana ID:                       2308
# Organic cation source:            S.Kataoka et al., J. Am. Chem. Soc. 137, 4158 (2015)
# Label:                            Propylammonium Tin Fluoride
# Material class:                   Hybrid organic-inorganic perovskite ( MC_ino )
# Geometry class:                   Bulk crystalline materials ( GC_cry )
# Organic cation chemical formula:  CH3CH2CH2NH3
# Number of atom types:             5
# Total number of atoms:            18
# Atom types:                       C H N  Sn F
# Number of each atom:              3 10 1  1 3
# Bandgap, HSE06 (eV):              5.1019
# Bandgap, GGA (eV):                3.9887
# Kpoint for VBM:                   0.5, 0.5, 0.5
# Kpoint for CBM:                   0.5, 0.5, 0
# Dielectric constant, electronic:  2.8854
# Dielectric constant, ionic:       3.1142
# Dielectric constant, total:       5.9996
# Refractive index:                 1.6986
# Atomization energy (eV/atom):     -4.7837
# Relative energy1 (eV/atom):       -0.3508
# Relative energy2 (eV/atom):       0.1828
# Volume of the unit cell (A^3):    144.91
# Density (g/cm^3):                 2.7024
# Tool:                             VASP
# Pseudopotential:                  PAW
# Note:                             ENCUT=400eV, k-spacing_relax=0.20/Angstrom, k-spacing_bandgap=0.15/Angstrom
# Created by:                       C.Kim, T.D.Huan, S.Krishnan, R. Ramprasad