data_1
_audit_creation_method   'Generated by vasp2cif'
_cell_length_a    9.22043437916
_cell_length_b    3.74984269482
_cell_length_c    4.76665443359
_cell_angle_alpha    66.9695809393
_cell_angle_beta    76.5558916467
_cell_angle_gamma    68.2011422934

_symmetry_space_group_name_H-M    'P 1'
loop_
_atom_site_label
_atom_site_type_symbol
_atom_site_fract_x
_atom_site_fract_y
_atom_site_fract_z
_atom_site_occupancy
C1   C   0.903087297017755   0.323048925723775   0.337198462192390   1.0
C2   C   0.752015401672551   0.250041831675183   0.520821767184266   1.0
C3   C   0.646197079176453   0.297157518401129   0.296358912076066   1.0
H4   H   0.540602547182246   0.217183037578017   0.411114099890113   1.0
H5   H   0.708276966657991   0.104563935686563   0.156374966256138   1.0
H6   H   0.775450977524386   0.946452768504386   0.697648199362440   1.0
H7   H   0.692004252956146   0.470775837342202   0.640090471499931   1.0
H8   H   0.078697467944472   0.002144188664694   0.640945844826277   1.0
H9   H   0.966587774424148   0.439451813527825   0.686206349393558   1.0
H10   H   0.965715184965518   0.102080377610953   0.220869090282925   1.0
H11   H   0.611167732928145   0.612470227492139   0.141481235696126   1.0
H12   H   0.876211012967232   0.622334268929770   0.161099793737172   1.0
H13   H   0.099966274867583   0.450257664656711   0.392571286229106   1.0
F14   F   0.369998999441286   0.897846622912638   0.614765629591034   1.0
F15   F   0.114267359172871   0.537149574795158   0.867248653747481   1.0
F16   F   0.235347051799238   0.713670626137230   0.232423513179505   1.0
N17   N   0.017510033599940   0.304524708497866   0.522785264549547   1.0
Sn18   Sn   0.354246585702065   0.280066071863701   0.955616460305940   1.0




# HOIP entry ID:                    0460
# Khazana ID:                       2310
# Organic cation source:            S.Kataoka et al., J. Am. Chem. Soc. 137, 4158 (2015)
# Label:                            Propylammonium Tin Fluoride
# Material class:                   Hybrid organic-inorganic perovskite ( MC_ino )
# Geometry class:                   Bulk crystalline materials ( GC_cry )
# Organic cation chemical formula:  CH3CH2CH2NH3
# Number of atom types:             5
# Total number of atoms:            18
# Atom types:                       C H N  Sn F
# Number of each atom:              3 10 1  1 3
# Bandgap, HSE06 (eV):              5.2336
# Bandgap, GGA (eV):                4.0821
# Kpoint for VBM:                   0.0263, 0.5, 0
# Kpoint for CBM:                   0.375, 0, 0.45
# Dielectric constant, electronic:  2.9633
# Dielectric constant, ionic:       12.1387
# Dielectric constant, total:       15.102
# Refractive index:                 1.7214
# Atomization energy (eV/atom):     -4.7818
# Relative energy1 (eV/atom):       -0.349
# Relative energy2 (eV/atom):       0.1847
# Volume of the unit cell (A^3):    140.09
# Density (g/cm^3):                 2.7954
# Tool:                             VASP
# Pseudopotential:                  PAW
# Note:                             ENCUT=400eV, k-spacing_relax=0.20/Angstrom, k-spacing_bandgap=0.15/Angstrom
# Created by:                       C.Kim, T.D.Huan, S.Krishnan, R. Ramprasad