data_1
_audit_creation_method   'Generated by vasp2cif'
_cell_length_a    4.72165520221
_cell_length_b    3.72366558788
_cell_length_c    8.70987202407
_cell_angle_alpha    88.3332008081
_cell_angle_beta    110.022102563
_cell_angle_gamma    100.242408459

_symmetry_space_group_name_H-M    'P 1'
loop_
_atom_site_label
_atom_site_type_symbol
_atom_site_fract_x
_atom_site_fract_y
_atom_site_fract_z
_atom_site_occupancy
C1   C   0.041268914049923   0.583509693136442   0.447446216760774   1.0
C2   C   0.708235247228373   0.620280588588393   0.410523619667558   1.0
C3   C   0.570797571582723   0.777246285818087   0.243373711815060   1.0
H4   H   0.719445819428465   0.019021545498767   0.223952936282501   1.0
H5   H   0.352795301442441   0.855045006786050   0.230425942231449   1.0
H6   H   0.575305619241192   0.351672786092586   0.415999045598952   1.0
H7   H   0.694597722042502   0.789989627723813   0.507036887752768   1.0
H8   H   0.000757799748442   0.250368374543250   0.641604869005562   1.0
H9   H   0.216843130854706   0.645781918260504   0.705212578822213   1.0
H10   H   0.065474994792837   0.399218629214339   0.359769093429229   1.0
H11   H   0.527467143930629   0.573909467380247   0.146764568226885   1.0
H12   H   0.185232960717279   0.845426556520046   0.444695506064193   1.0
H13   H   0.361863076062235   0.327275803367776   0.637235171879681   1.0
F14   F   0.251173517128016   0.924273807847740   0.867632488316033   1.0
F15   F   0.676901616485800   0.128938497755605   0.699651885637024   1.0
F16   F   0.030342560776063   0.243517375537145   0.094838415299009   1.0
N17   N   0.166355678435558   0.440651850353788   0.616331592083917   1.0
Sn18   Sn   0.831901326052872   0.779122185575439   0.927745471127054   1.0




# HOIP entry ID:                    0461
# Khazana ID:                       2311
# Organic cation source:            S.Kataoka et al., J. Am. Chem. Soc. 137, 4158 (2015)
# Label:                            Propylammonium Tin Fluoride
# Material class:                   Hybrid organic-inorganic perovskite ( MC_ino )
# Geometry class:                   Bulk crystalline materials ( GC_cry )
# Organic cation chemical formula:  CH3CH2CH2NH3
# Number of atom types:             5
# Total number of atoms:            18
# Atom types:                       C H N  Sn F
# Number of each atom:              3 10 1  1 3
# Bandgap, HSE06 (eV):              5.0705
# Bandgap, GGA (eV):                3.9021
# Kpoint for VBM:                   0.5, 0.5, 0.5
# Kpoint for CBM:                   0, 0, 0
# Dielectric constant, electronic:  2.9103
# Dielectric constant, ionic:       3.8557
# Dielectric constant, total:       6.7659
# Refractive index:                 1.7059
# Atomization energy (eV/atom):     -4.7944
# Relative energy1 (eV/atom):       -0.3615
# Relative energy2 (eV/atom):       0.1721
# Volume of the unit cell (A^3):    141.5
# Density (g/cm^3):                 2.7675
# Tool:                             VASP
# Pseudopotential:                  PAW
# Note:                             ENCUT=400eV, k-spacing_relax=0.20/Angstrom, k-spacing_bandgap=0.15/Angstrom
# Created by:                       C.Kim, T.D.Huan, S.Krishnan, R. Ramprasad