data_1
_audit_creation_method   'Generated by vasp2cif'
_cell_length_a    6.87598424352
_cell_length_b    5.76839805059
_cell_length_c    4.58168518623
_cell_angle_alpha    87.681218359
_cell_angle_beta    90.2553456339
_cell_angle_gamma    108.109996134

_symmetry_space_group_name_H-M    'P 1'
loop_
_atom_site_label
_atom_site_type_symbol
_atom_site_fract_x
_atom_site_fract_y
_atom_site_fract_z
_atom_site_occupancy
C1   C   0.179928767837104   0.656362011841416   0.499047005228341   1.0
C2   C   0.502893169956153   0.217865622533331   0.457161562580026   1.0
C3   C   0.351047826601409   0.352885639525311   0.383393898425453   1.0
C4   C   0.377480969141757   0.591089357399490   0.537095679312451   1.0
H5   H   0.744885838223226   0.492158267573295   0.244745377072171   1.0
H6   H   0.817616164080974   0.287305017198939   0.450513120994053   1.0
H7   H   0.747869323756021   0.505638827745173   0.611188792199201   1.0
H8   H   0.123663582562017   0.626407397629578   0.275268179063744   1.0
H9   H   0.066258081659818   0.542162067689809   0.653704891659508   1.0
H10   H   0.195115240973763   0.842621467942678   0.547113780377494   1.0
H11   H   0.200437953101080   0.224874769263671   0.434181426659755   1.0
H12   H   0.354535051961307   0.391613527318370   0.147629807634367   1.0
H13   H   0.410240425627229   0.573867687553147   0.769793782108096   1.0
H14   H   0.508767707883884   0.734490089913656   0.443052137164813   1.0
H15   H   0.478742044333131   0.135536165455498   0.678236202114128   1.0
H16   H   0.490724685763404   0.075940432120646   0.301890990445855   1.0
F17   F   0.181901100885682   0.999849869627809   0.958871115399560   1.0
F18   F   0.868107451173088   0.966132533809294   0.439458296198339   1.0
F19   F   0.770746559917832   0.646071550984438   0.937492648243349   1.0
N20   N   0.718427583741644   0.387975411974480   0.439834289297742   1.0
Sn21   Sn   0.894320470819572   0.032222284900030   0.948057017821540   1.0




# HOIP entry ID:                    0464
# Khazana ID:                       2314
# Organic cation source:            H. Hu et al., Sci. Rep. 6, 33546 (2016)
# Label:                            Butylammonium Tin Fluoride
# Material class:                   Hybrid organic-inorganic perovskite ( MC_ino )
# Geometry class:                   Bulk crystalline materials ( GC_cry )
# Organic cation chemical formula:  CH3CH2CH2CH2NH3
# Number of atom types:             5
# Total number of atoms:            21
# Atom types:                       C H N  Sn F
# Number of each atom:              4 12 1  1 3
# Bandgap, HSE06 (eV):              5.3592
# Bandgap, GGA (eV):                4.2676
# Kpoint for VBM:                   0.5, 0.5, 0.5
# Kpoint for CBM:                   -0.4167, 0.2857, 0.3333
# Dielectric constant, electronic:  2.7379
# Dielectric constant, ionic:       3.5685
# Dielectric constant, total:       6.3063
# Refractive index:                 1.6547
# Atomization energy (eV/atom):     -4.8333
# Relative energy1 (eV/atom):       -0.3551
# Relative energy2 (eV/atom):       0.1023
# Volume of the unit cell (A^3):    172.58
# Density (g/cm^3):                 2.4041
# Tool:                             VASP
# Pseudopotential:                  PAW
# Note:                             ENCUT=400eV, k-spacing_relax=0.20/Angstrom, k-spacing_bandgap=0.15/Angstrom
# Created by:                       C.Kim, T.D.Huan, S.Krishnan, R. Ramprasad