data_1
_audit_creation_method   'Generated by vasp2cif'
_cell_length_a    4.66029426475
_cell_length_b    5.76889263849
_cell_length_c    6.83852216784
_cell_angle_alpha    71.362327965
_cell_angle_beta    86.3154879779
_cell_angle_gamma    85.5463458293

_symmetry_space_group_name_H-M    'P 1'
loop_
_atom_site_label
_atom_site_type_symbol
_atom_site_fract_x
_atom_site_fract_y
_atom_site_fract_z
_atom_site_occupancy
C1   C   0.555821641660614   0.672551238718668   0.813326393105889   1.0
C2   C   0.454842939569538   0.232814090543663   0.505192901887433   1.0
C3   C   0.396101314045247   0.377006999935240   0.654986924866279   1.0
C4   C   0.570615620865873   0.601953831050103   0.616364050554054   1.0
H5   H   0.234732511058439   0.497951328502403   0.261675079263981   1.0
H6   H   0.441793855633932   0.288523146258690   0.190051401012212   1.0
H7   H   0.595757428436684   0.514351394734703   0.242566990154870   1.0
H8   H   0.332561283364932   0.682543964189946   0.872519426888125   1.0
H9   H   0.682787179580139   0.533919762322412   0.928719856638018   1.0
H10   H   0.648296004052796   0.844950403240659   0.794109037090799   1.0
H11   H   0.440815569842428   0.247729878988615   0.806689700197197   1.0
H12   H   0.167045087491417   0.433055996938108   0.659178956338266   1.0
H13   H   0.794931517200993   0.563265394324041   0.572930218441101   1.0
H14   H   0.485176760415627   0.752319359874470   0.486868424819839   1.0
H15   H   0.673018455840548   0.147359649830840   0.518832950451682   1.0
H16   H   0.300151176958636   0.092519700826287   0.532500061990845   1.0
F17   F   0.968496510849612   0.047636155827689   0.818586077929417   1.0
F18   F   0.430242970597668   0.977201856026738   0.133705495136844   1.0
F19   F   0.930118823705115   0.644515883601066   0.202327851907768   1.0
N20   N   0.430699248982115   0.395639281442499   0.285041976263216   1.0
Sn21   Sn   0.946044099847590   0.031080682822868   0.122106225062716   1.0




# HOIP entry ID:                    0465
# Khazana ID:                       2315
# Organic cation source:            H. Hu et al., Sci. Rep. 6, 33546 (2016)
# Label:                            Butylammonium Tin Fluoride
# Material class:                   Hybrid organic-inorganic perovskite ( MC_ino )
# Geometry class:                   Bulk crystalline materials ( GC_cry )
# Organic cation chemical formula:  CH3CH2CH2CH2NH3
# Number of atom types:             5
# Total number of atoms:            21
# Atom types:                       C H N  Sn F
# Number of each atom:              4 12 1  1 3
# Bandgap, HSE06 (eV):              5.3015
# Bandgap, GGA (eV):                4.214
# Kpoint for VBM:                   0.5, 0.5, 0.5
# Kpoint for CBM:                   0.5, 0.5, 0.5
# Dielectric constant, electronic:  2.7335
# Dielectric constant, ionic:       4.6625
# Dielectric constant, total:       7.3959
# Refractive index:                 1.6533
# Atomization energy (eV/atom):     -4.8344
# Relative energy1 (eV/atom):       -0.3562
# Relative energy2 (eV/atom):       0.1012
# Volume of the unit cell (A^3):    173.53
# Density (g/cm^3):                 2.3909
# Tool:                             VASP
# Pseudopotential:                  PAW
# Note:                             ENCUT=400eV, k-spacing_relax=0.20/Angstrom, k-spacing_bandgap=0.15/Angstrom
# Created by:                       C.Kim, T.D.Huan, S.Krishnan, R. Ramprasad