data_1
_audit_creation_method   'Generated by vasp2cif'
_cell_length_a    4.54376450968
_cell_length_b    5.59382246918
_cell_length_c    7.07535859213
_cell_angle_alpha    69.536237322
_cell_angle_beta    97.1336481982
_cell_angle_gamma    90.6231903188

_symmetry_space_group_name_H-M    'P 1'
loop_
_atom_site_label
_atom_site_type_symbol
_atom_site_fract_x
_atom_site_fract_y
_atom_site_fract_z
_atom_site_occupancy
C1   C   0.378064204731693   0.637430677931405   0.774369727227139   1.0
C2   C   0.557154827085647   0.203589912715600   0.477578711503355   1.0
C3   C   0.425405505109225   0.289721507499415   0.630974323157055   1.0
C4   C   0.574118809146974   0.519852921438229   0.667221591500088   1.0
H5   H   0.338165406277867   0.529025402112040   0.251634167868048   1.0
H6   H   0.532677545712318   0.352088799172890   0.158220933811634   1.0
H7   H   0.709447873405985   0.540800944156182   0.270013643552133   1.0
H8   H   0.192068187843589   0.749190994045399   0.668955155368337   1.0
H9   H   0.276222989226909   0.489234518496261   0.891704824903314   1.0
H10   H   0.501451023909176   0.757925043434540   0.845229313611519   1.0
H11   H   0.439813430397201   0.129153815948037   0.773239857354667   1.0
H12   H   0.189483961478437   0.335883948802199   0.579491737617012   1.0
H13   H   0.792834271451873   0.461666472718690   0.756445283705325   1.0
H14   H   0.618660111694609   0.665498827604488   0.524467273315196   1.0
H15   H   0.791045892620787   0.145058815696558   0.524446094869447   1.0
H16   H   0.438248025595008   0.045606100441745   0.452473998074595   1.0
F17   F   0.946627467314549   0.919690545101659   0.876556922191966   1.0
F18   F   0.500208287374321   0.980641616396170   0.128431337729793   1.0
F19   F   0.033226375798513   0.674031518697603   0.304396662882794   1.0
N20   N   0.532036721518608   0.421199377636228   0.274052173479717   1.0
Sn21   Sn   0.996269082306767   0.059728239954659   0.107176266276951   1.0




# HOIP entry ID:                    0467
# Khazana ID:                       2317
# Organic cation source:            H. Hu et al., Sci. Rep. 6, 33546 (2016)
# Label:                            Butylammonium Tin Fluoride
# Material class:                   Hybrid organic-inorganic perovskite ( MC_ino )
# Geometry class:                   Bulk crystalline materials ( GC_cry )
# Organic cation chemical formula:  CH3CH2CH2CH2NH3
# Number of atom types:             5
# Total number of atoms:            21
# Atom types:                       C H N  Sn F
# Number of each atom:              4 12 1  1 3
# Bandgap, HSE06 (eV):              5.5262
# Bandgap, GGA (eV):                4.4093
# Kpoint for VBM:                   0.5, 0.5, 0
# Kpoint for CBM:                   0.2778, -0.0714, 0.1667
# Dielectric constant, electronic:  2.8102
# Dielectric constant, ionic:       3.6632
# Dielectric constant, total:       6.4734
# Refractive index:                 1.6764
# Atomization energy (eV/atom):     -4.8325
# Relative energy1 (eV/atom):       -0.3543
# Relative energy2 (eV/atom):       0.1031
# Volume of the unit cell (A^3):    167.08
# Density (g/cm^3):                 2.4832
# Tool:                             VASP
# Pseudopotential:                  PAW
# Note:                             ENCUT=400eV, k-spacing_relax=0.20/Angstrom, k-spacing_bandgap=0.15/Angstrom
# Created by:                       C.Kim, T.D.Huan, S.Krishnan, R. Ramprasad