data_1
_audit_creation_method   'Generated by vasp2cif'
_cell_length_a    5.14171791212
_cell_length_b    5.38463438699
_cell_length_c    5.44534546214
_cell_angle_alpha    89.5762082519
_cell_angle_beta    99.1624685015
_cell_angle_gamma    74.776938662

_symmetry_space_group_name_H-M    'P 1'
loop_
_atom_site_label
_atom_site_type_symbol
_atom_site_fract_x
_atom_site_fract_y
_atom_site_fract_z
_atom_site_occupancy
C1   C   0.245141180540891   0.746164497617926   0.542179918819883   1.0
C2   C   0.326371492434113   0.888719806758928   0.339975355308574   1.0
C3   C   0.532984092026048   0.036629992762038   0.431822811808907   1.0
H4   H   0.427855226812042   0.211548885606319   0.511200993860506   1.0
H5   H   0.690936842662246   0.921827940081741   0.576374000846748   1.0
H6   H   0.626799083512893   0.087600422381456   0.280361188041724   1.0
H7   H   0.531066420710367   0.780702668764782   0.036543895558040   1.0
H8   H   0.141950632123141   0.015489928995308   0.233601132457636   1.0
H9   H   0.160374135978799   0.879929496098164   0.675532914244450   1.0
H10   H   0.421659781323761   0.603545237057553   0.644051169038995   1.0
H11   H   0.093644833151018   0.647210087716886   0.466705439544299   1.0
H12   H   0.303338697082950   0.611283567463204   0.068810815847605   1.0
H13   H   0.607603694849729   0.552986075916245   0.263204797630301   1.0
F14   F   0.889515097168967   0.374955827765426   0.463749990659636   1.0
F15   F   0.898758756380374   0.699337396652858   0.943688082953024   1.0
F16   F   0.334429612057143   0.254705048823311   0.911327673713572   1.0
N17   N   0.447116896177370   0.694442364584518   0.161848604541078   1.0
Sn18   Sn   0.908383525008119   0.307670754953392   0.857041215125179   1.0




# HOIP entry ID:                    0469
# Khazana ID:                       2319
# Organic cation source:            C.C.Stoumpos et al., J. Am. Chem. Soc. 137, 6804 (2015)
# Label:                            Isopropylammonium Tin Fluoride
# Material class:                   Hybrid organic-inorganic perovskite ( MC_ino )
# Geometry class:                   Bulk crystalline materials ( GC_cry )
# Organic cation chemical formula:  (CH3)2CHNH3
# Number of atom types:             5
# Total number of atoms:            18
# Atom types:                       C H N  Sn F
# Number of each atom:              3 10 1  1 3
# Bandgap, HSE06 (eV):              4.9553
# Bandgap, GGA (eV):                3.8681
# Kpoint for VBM:                   0.5, 0.5, 0.5
# Kpoint for CBM:                   0.375, -0.375, 0.2143
# Dielectric constant, electronic:  2.9204
# Dielectric constant, ionic:       2.4735
# Dielectric constant, total:       5.3939
# Refractive index:                 1.7089
# Atomization energy (eV/atom):     -4.7912
# Relative energy1 (eV/atom):       -0.3524
# Relative energy2 (eV/atom):       0.1813
# Volume of the unit cell (A^3):    143.42
# Density (g/cm^3):                 2.7305
# Tool:                             VASP
# Pseudopotential:                  PAW
# Note:                             ENCUT=400eV, k-spacing_relax=0.20/Angstrom, k-spacing_bandgap=0.15/Angstrom
# Created by:                       C.Kim, T.D.Huan, S.Krishnan, R. Ramprasad