data_1
_audit_creation_method   'Generated by vasp2cif'
_cell_length_a    6.43278984767
_cell_length_b    4.49345491025
_cell_length_c    5.04077712519
_cell_angle_alpha    94.2597549263
_cell_angle_beta    91.2811684533
_cell_angle_gamma    93.850149642

_symmetry_space_group_name_H-M    'P 1'
loop_
_atom_site_label
_atom_site_type_symbol
_atom_site_fract_x
_atom_site_fract_y
_atom_site_fract_z
_atom_site_occupancy
C1   C   0.647874098670108   0.772238469462508   0.246226397610144   1.0
C2   C   0.570756549828353   0.549217139157264   0.437726284166452   1.0
C3   C   0.744523670038532   0.495558432414669   0.633000514182179   1.0
H4   H   0.872045399906355   0.397546735485619   0.526760105015953   1.0
H5   H   0.690959211652739   0.347849216322175   0.782634879164476   1.0
H6   H   0.807058224756823   0.708692613567237   0.730983798868344   1.0
H7   H   0.266230601507786   0.686568157228784   0.448906077522686   1.0
H8   H   0.509954599294382   0.342420937612623   0.329502302692852   1.0
H9   H   0.776592167224436   0.678476456713582   0.140992374764600   1.0
H10   H   0.528053924801732   0.822054070820244   0.104904766518622   1.0
H11   H   0.707302690661287   0.979403536091745   0.357324965528619   1.0
H12   H   0.339458631620779   0.515852221972494   0.718753325973260   1.0
H13   H   0.418824628984488   0.872940001013653   0.685714559075983   1.0
F14   F   0.389387889173086   0.180393803863872   0.921025086478195   1.0
F15   F   0.152251426720703   0.644477451028010   0.085235097040979   1.0
F16   F   0.145831637491455   0.146112118176546   0.440381234623821   1.0
N17   N   0.386430729236992   0.665698247688049   0.583682230585168   1.0
Sn18   Sn   0.070523918429892   0.133570391380935   0.026646000187682   1.0




# HOIP entry ID:                    0471
# Khazana ID:                       2321
# Organic cation source:            C.C.Stoumpos et al., J. Am. Chem. Soc. 137, 6804 (2015)
# Label:                            Isopropylammonium Tin Fluoride
# Material class:                   Hybrid organic-inorganic perovskite ( MC_ino )
# Geometry class:                   Bulk crystalline materials ( GC_cry )
# Organic cation chemical formula:  (CH3)2CHNH3
# Number of atom types:             5
# Total number of atoms:            18
# Atom types:                       C H N  Sn F
# Number of each atom:              3 10 1  1 3
# Bandgap, HSE06 (eV):              5.579
# Bandgap, GGA (eV):                4.4386
# Kpoint for VBM:                   0.5, 0.5, 0.5
# Kpoint for CBM:                   0.5, 0.5, 0.5
# Dielectric constant, electronic:  2.8529
# Dielectric constant, ionic:       4.066
# Dielectric constant, total:       6.9189
# Refractive index:                 1.689
# Atomization energy (eV/atom):     -4.811
# Relative energy1 (eV/atom):       -0.3722
# Relative energy2 (eV/atom):       0.1614
# Volume of the unit cell (A^3):    144.92
# Density (g/cm^3):                 2.7022
# Tool:                             VASP
# Pseudopotential:                  PAW
# Note:                             ENCUT=400eV, k-spacing_relax=0.20/Angstrom, k-spacing_bandgap=0.15/Angstrom
# Created by:                       C.Kim, T.D.Huan, S.Krishnan, R. Ramprasad