data_1
_audit_creation_method   'Generated by vasp2cif'
_cell_length_a    4.6790930788
_cell_length_b    4.69472530046
_cell_length_c    8.08986069598
_cell_angle_alpha    124.9548942
_cell_angle_beta    95.4147949191
_cell_angle_gamma    82.0473472207

_symmetry_space_group_name_H-M    'P 1'
loop_
_atom_site_label
_atom_site_type_symbol
_atom_site_fract_x
_atom_site_fract_y
_atom_site_fract_z
_atom_site_occupancy
C1   C   0.646101172485569   0.864923704705150   0.642734160565378   1.0
C2   C   0.556698563115399   0.527422210325385   0.594448272748970   1.0
C3   C   0.316416460274924   0.610874510812497   0.734528090164454   1.0
H4   H   0.408330376873246   0.705105993320860   0.884158870523949   1.0
H5   H   0.200961196799617   0.386381817192852   0.681889209082987   1.0
H6   H   0.162329525412508   0.818330633984433   0.747605985903071   1.0
H7   H   0.608446159537002   0.274226414442251   0.281829319443480   1.0
H8   H   0.738704347748726   0.362316018328141   0.601264486694780   1.0
H9   H   0.465950501476632   0.990118181257543   0.604228093194655   1.0
H10   H   0.686358282471984   0.034310326786350   0.804395351330421   1.0
H11   H   0.832739175456893   0.826906887577915   0.559798889948662   1.0
H12   H   0.390829612422331   0.083877018446398   0.333888903492893   1.0
H13   H   0.274081196691464   0.466243319519228   0.363192648134206   1.0
F14   F   0.070968495544445   0.848331943123562   0.376988532174648   1.0
F15   F   0.532969169254350   0.611385337327658   0.134265228786484   1.0
F16   F   0.927953360876956   0.094620469801628   0.131207529575238   1.0
N17   N   0.448753909734061   0.322110781376094   0.378174422258774   1.0
Sn18   Sn   0.987988493823809   0.547564431672012   0.062362005976761   1.0




# HOIP entry ID:                    0472
# Khazana ID:                       2322
# Organic cation source:            C.C.Stoumpos et al., J. Am. Chem. Soc. 137, 6804 (2015)
# Label:                            Isopropylammonium Tin Fluoride
# Material class:                   Hybrid organic-inorganic perovskite ( MC_ino )
# Geometry class:                   Bulk crystalline materials ( GC_cry )
# Organic cation chemical formula:  (CH3)2CHNH3
# Number of atom types:             5
# Total number of atoms:            18
# Atom types:                       C H N  Sn F
# Number of each atom:              3 10 1  1 3
# Bandgap, HSE06 (eV):              5.1884
# Bandgap, GGA (eV):                4.0626
# Kpoint for VBM:                   0.5, 0.5, 0.5
# Kpoint for CBM:                   -0.3333, 0.4444, 0.2857
# Dielectric constant, electronic:  2.8969
# Dielectric constant, ionic:       6.5148
# Dielectric constant, total:       9.4118
# Refractive index:                 1.702
# Atomization energy (eV/atom):     -4.8076
# Relative energy1 (eV/atom):       -0.3688
# Relative energy2 (eV/atom):       0.1649
# Volume of the unit cell (A^3):    144.23
# Density (g/cm^3):                 2.7151
# Tool:                             VASP
# Pseudopotential:                  PAW
# Note:                             ENCUT=400eV, k-spacing_relax=0.20/Angstrom, k-spacing_bandgap=0.15/Angstrom
# Created by:                       C.Kim, T.D.Huan, S.Krishnan, R. Ramprasad