data_1
_audit_creation_method   'Generated by vasp2cif'
_cell_length_a    7.71091669559
_cell_length_b    4.64819494827
_cell_length_c    4.42655471267
_cell_angle_alpha    109.737722345
_cell_angle_beta    77.5733436671
_cell_angle_gamma    103.542146588

_symmetry_space_group_name_H-M    'P 1'
loop_
_atom_site_label
_atom_site_type_symbol
_atom_site_fract_x
_atom_site_fract_y
_atom_site_fract_z
_atom_site_occupancy
C1   C   0.403359294668405   0.405835482199386   0.673708821478542   1.0
C2   C   0.391413775559627   0.056892965940570   0.590697578202942   1.0
C3   C   0.226370655108738   0.889611014951790   0.425554913264634   1.0
H4   H   0.104059825647958   0.942089746762811   0.593307146123536   1.0
H5   H   0.213318621404603   0.638575414813573   0.346889568598144   1.0
H6   H   0.226269251445629   0.967364997715983   0.218537065753793   1.0
H7   H   0.663737275031288   0.994403261042926   0.511963217742355   1.0
H8   H   0.384547053694007   0.993935849167961   0.808737127224092   1.0
H9   H   0.359049986835309   0.450123851503811   0.479723622348047   1.0
H10   H   0.311509199003858   0.485046727981661   0.895518756336287   1.0
H11   H   0.538522524648442   0.534998934928275   0.704967234923743   1.0
H12   H   0.551059278445123   0.730799119355389   0.242747437633668   1.0
H13   H   0.608699099055940   0.092852063619979   0.217403053263311   1.0
F14   F   0.636899550179763   0.393511107141713   0.059751157185090   1.0
F15   F   0.936907372710863   0.269666470137317   0.322797765689259   1.0
F16   F   0.810238159201603   0.924194768439243   0.741271743763406   1.0
N17   N   0.562695572385913   0.962495802168064   0.376270239901096   1.0
Sn18   Sn   0.920703504972920   0.425122422129675   0.896083550568029   1.0




# HOIP entry ID:                    0473
# Khazana ID:                       2323
# Organic cation source:            C.C.Stoumpos et al., J. Am. Chem. Soc. 137, 6804 (2015)
# Label:                            Isopropylammonium Tin Fluoride
# Material class:                   Hybrid organic-inorganic perovskite ( MC_ino )
# Geometry class:                   Bulk crystalline materials ( GC_cry )
# Organic cation chemical formula:  (CH3)2CHNH3
# Number of atom types:             5
# Total number of atoms:            18
# Atom types:                       C H N  Sn F
# Number of each atom:              3 10 1  1 3
# Bandgap, HSE06 (eV):              5.4005
# Bandgap, GGA (eV):                4.2605
# Kpoint for VBM:                   0.1, 0.5, 0.5
# Kpoint for CBM:                   0, 0.5, 0
# Dielectric constant, electronic:  2.8803
# Dielectric constant, ionic:       9.7381
# Dielectric constant, total:       12.6185
# Refractive index:                 1.6971
# Atomization energy (eV/atom):     -4.788
# Relative energy1 (eV/atom):       -0.3492
# Relative energy2 (eV/atom):       0.1845
# Volume of the unit cell (A^3):    143.57
# Density (g/cm^3):                 2.7276
# Tool:                             VASP
# Pseudopotential:                  PAW
# Note:                             ENCUT=400eV, k-spacing_relax=0.20/Angstrom, k-spacing_bandgap=0.15/Angstrom
# Created by:                       C.Kim, T.D.Huan, S.Krishnan, R. Ramprasad