data_1
_audit_creation_method   'Generated by vasp2cif'
_cell_length_a    7.5642159216
_cell_length_b    3.85287603352
_cell_length_c    5.67004526008
_cell_angle_alpha    113.43281085
_cell_angle_beta    83.1913486654
_cell_angle_gamma    107.305280867

_symmetry_space_group_name_H-M    'P 1'
loop_
_atom_site_label
_atom_site_type_symbol
_atom_site_fract_x
_atom_site_fract_y
_atom_site_fract_z
_atom_site_occupancy
C1   C   0.702282365932284   0.251492438335525   0.281011242887871   1.0
C2   C   0.590222571021542   0.059224562720288   0.459479771964382   1.0
C3   C   0.714757686817265   0.135536900449921   0.676565827410364   1.0
H4   H   0.851790548754124   0.108005806038321   0.603903474120671   1.0
H5   H   0.659969389878199   0.941918761604249   0.779086019279887   1.0
H6   H   0.732050582435654   0.438295900675925   0.814354088325445   1.0
H7   H   0.361464042885949   0.273453397408367   0.445514533593126   1.0
H8   H   0.532689577975191   0.749244679924566   0.347169693236687   1.0
H9   H   0.801644240466921   0.526566541526506   0.388280663515779   1.0
H10   H   0.781503538439473   0.054173655522831   0.153172883964750   1.0
H11   H   0.615178445876680   0.292186870632008   0.161488077264217   1.0
H12   H   0.316577914384958   0.986611584671863   0.607787190670479   1.0
H13   H   0.441031519748151   0.444808116205742   0.739953951344027   1.0
F14   F   0.371852042018773   0.846711568889191   0.957270106055198   1.0
F15   F   0.079530805240069   0.026338680228115   0.779281916072577   1.0
F16   F   0.206367948020954   0.409791786575177   0.317059050324936   1.0
N17   N   0.420533300027827   0.200521710211568   0.569163971804016   1.0
Sn18   Sn   0.091623480075960   0.781067038379923   0.062087538165500   1.0




# HOIP entry ID:                    0474
# Khazana ID:                       2324
# Organic cation source:            C.C.Stoumpos et al., J. Am. Chem. Soc. 137, 6804 (2015)
# Label:                            Isopropylammonium Tin Fluoride
# Material class:                   Hybrid organic-inorganic perovskite ( MC_ino )
# Geometry class:                   Bulk crystalline materials ( GC_cry )
# Organic cation chemical formula:  (CH3)2CHNH3
# Number of atom types:             5
# Total number of atoms:            18
# Atom types:                       C H N  Sn F
# Number of each atom:              3 10 1  1 3
# Bandgap, HSE06 (eV):              5.1622
# Bandgap, GGA (eV):                4.0218
# Kpoint for VBM:                   0.1, 0.5, 0.5
# Kpoint for CBM:                   0, 0, 0.4375
# Dielectric constant, electronic:  2.8315
# Dielectric constant, ionic:       4.1218
# Dielectric constant, total:       6.9534
# Refractive index:                 1.6827
# Atomization energy (eV/atom):     -4.7862
# Relative energy1 (eV/atom):       -0.3473
# Relative energy2 (eV/atom):       0.1863
# Volume of the unit cell (A^3):    144.76
# Density (g/cm^3):                 2.7052
# Tool:                             VASP
# Pseudopotential:                  PAW
# Note:                             ENCUT=400eV, k-spacing_relax=0.20/Angstrom, k-spacing_bandgap=0.15/Angstrom
# Created by:                       C.Kim, T.D.Huan, S.Krishnan, R. Ramprasad