data_1
_audit_creation_method   'Generated by vasp2cif'
_cell_length_a    7.46491261546
_cell_length_b    3.73258660298
_cell_length_c    5.47624043397
_cell_angle_alpha    69.1380744045
_cell_angle_beta    83.9621462771
_cell_angle_gamma    81.7956557101

_symmetry_space_group_name_H-M    'P 1'
loop_
_atom_site_label
_atom_site_type_symbol
_atom_site_fract_x
_atom_site_fract_y
_atom_site_fract_z
_atom_site_occupancy
C1   C   0.569612826046040   0.973382299621534   0.238236193830765   1.0
C2   C   0.537113155719226   0.930956482441992   0.525086240747768   1.0
C3   C   0.700970060423899   0.022257670473081   0.625115475223282   1.0
H4   H   0.814357268278073   0.806406382574487   0.615969890243164   1.0
H5   H   0.677732150566833   0.013019569573210   0.825363837596484   1.0
H6   H   0.744445633128230   0.300492365500091   0.507170353237186   1.0
H7   H   0.342780467833528   0.202391719920961   0.744015172776365   1.0
H8   H   0.513738017400961   0.639549274638874   0.646150538258745   1.0
H9   H   0.460000975212978   0.886089739779216   0.163271882918345   1.0
H10   H   0.584812820663629   0.272821050124705   0.118853543248605   1.0
H11   H   0.695530308545898   0.798240670731843   0.215807661039968   1.0
H12   H   0.339613909667726   0.435085971252683   0.423402453184160   1.0
H13   H   0.253141497695857   0.024511806858079   0.553635228325959   1.0
F14   F   0.291907176540363   0.501041305203863   0.956181668560518   1.0
F15   F   0.016315217090991   0.163904278638711   0.804526917876622   1.0
F16   F   0.138398183269587   0.854049838076982   0.340971901361996   1.0
N17   N   0.360167025765307   0.165597030742724   0.564493018293106   1.0
Sn18   Sn   0.020023306150854   0.451222543847003   0.089178023276951   1.0




# HOIP entry ID:                    0475
# Khazana ID:                       2325
# Organic cation source:            C.C.Stoumpos et al., J. Am. Chem. Soc. 137, 6804 (2015)
# Label:                            Isopropylammonium Tin Fluoride
# Material class:                   Hybrid organic-inorganic perovskite ( MC_ino )
# Geometry class:                   Bulk crystalline materials ( GC_cry )
# Organic cation chemical formula:  (CH3)2CHNH3
# Number of atom types:             5
# Total number of atoms:            18
# Atom types:                       C H N  Sn F
# Number of each atom:              3 10 1  1 3
# Bandgap, HSE06 (eV):              5.1174
# Bandgap, GGA (eV):                3.9686
# Kpoint for VBM:                   0.4737, 0.5, 0
# Kpoint for CBM:                   0, 0, 0.4444
# Dielectric constant, electronic:  2.9054
# Dielectric constant, ionic:       5.4426
# Dielectric constant, total:       8.348
# Refractive index:                 1.7045
# Atomization energy (eV/atom):     -4.7876
# Relative energy1 (eV/atom):       -0.3488
# Relative energy2 (eV/atom):       0.1848
# Volume of the unit cell (A^3):    140.88
# Density (g/cm^3):                 2.7797
# Tool:                             VASP
# Pseudopotential:                  PAW
# Note:                             ENCUT=400eV, k-spacing_relax=0.20/Angstrom, k-spacing_bandgap=0.15/Angstrom
# Created by:                       C.Kim, T.D.Huan, S.Krishnan, R. Ramprasad