data_1
_audit_creation_method   'Generated by vasp2cif'
_cell_length_a    5.54896220877
_cell_length_b    3.86486036361
_cell_length_c    7.33066030578
_cell_angle_alpha    74.1375426604
_cell_angle_beta    86.4605138044
_cell_angle_gamma    103.767370351

_symmetry_space_group_name_H-M    'P 1'
loop_
_atom_site_label
_atom_site_type_symbol
_atom_site_fract_x
_atom_site_fract_y
_atom_site_fract_z
_atom_site_occupancy
C1   C   0.464565458341610   0.496642003476488   0.692953183799929   1.0
C2   C   0.419025303801952   0.373122513776416   0.515245746253299   1.0
C3   C   0.298361610416478   0.606246651563012   0.363175338457410   1.0
H4   H   0.150160098203599   0.683023953137962   0.434070550708654   1.0
H5   H   0.218884369435223   0.440936784882382   0.272158123517883   1.0
H6   H   0.428444311233506   0.858756477958700   0.268377324883822   1.0
H7   H   0.661815757392887   0.223629277004065   0.328440889600365   1.0
H8   H   0.302453992211675   0.087783681407060   0.558837432722498   1.0
H9   H   0.491602195803878   0.270899750617552   0.809213803785404   1.0
H10   H   0.633087902965521   0.725183706414676   0.667019848220086   1.0
H11   H   0.307685632989667   0.585322720345061   0.741193503349933   1.0
H12   H   0.774806399049226   0.635110364847030   0.355936741484591   1.0
H13   H   0.770815760433273   0.258155107345019   0.537826038458746   1.0
F14   F   0.598666582752479   0.513557457491991   0.052838147889496   1.0
F15   F   0.927175972207976   0.041778902766886   0.186154790973710   1.0
F16   F   0.902751654163467   0.213141125191264   0.747345905619781   1.0
N17   N   0.672793573569663   0.363721577750575   0.429357293838670   1.0
Sn18   Sn   0.978983425027877   0.753117944023728   0.964345336435571   1.0




# HOIP entry ID:                    0476
# Khazana ID:                       2326
# Organic cation source:            C.C.Stoumpos et al., J. Am. Chem. Soc. 137, 6804 (2015)
# Label:                            Isopropylammonium Tin Fluoride
# Material class:                   Hybrid organic-inorganic perovskite ( MC_ino )
# Geometry class:                   Bulk crystalline materials ( GC_cry )
# Organic cation chemical formula:  (CH3)2CHNH3
# Number of atom types:             5
# Total number of atoms:            18
# Atom types:                       C H N  Sn F
# Number of each atom:              3 10 1  1 3
# Bandgap, HSE06 (eV):              5.3659
# Bandgap, GGA (eV):                4.178
# Kpoint for VBM:                   0, 0.5, 0
# Kpoint for CBM:                   0, 0, 0.4167
# Dielectric constant, electronic:  2.8148
# Dielectric constant, ionic:       3.1719
# Dielectric constant, total:       5.9867
# Refractive index:                 1.6777
# Atomization energy (eV/atom):     -4.7774
# Relative energy1 (eV/atom):       -0.3386
# Relative energy2 (eV/atom):       0.195
# Volume of the unit cell (A^3):    145.52
# Density (g/cm^3):                 2.6911
# Tool:                             VASP
# Pseudopotential:                  PAW
# Note:                             ENCUT=400eV, k-spacing_relax=0.20/Angstrom, k-spacing_bandgap=0.15/Angstrom
# Created by:                       C.Kim, T.D.Huan, S.Krishnan, R. Ramprasad