data_1
_audit_creation_method   'Generated by vasp2cif'
_cell_length_a    6.05267436158
_cell_length_b    4.59497596415
_cell_length_c    4.5606902066
_cell_angle_alpha    84.977387511
_cell_angle_beta    99.3290435714
_cell_angle_gamma    99.7842413314

_symmetry_space_group_name_H-M    'P 1'
loop_
_atom_site_label
_atom_site_type_symbol
_atom_site_fract_x
_atom_site_fract_y
_atom_site_fract_z
_atom_site_occupancy
F1   F   0.641709460987343   0.861997661634668   0.967580071455103   1.0
F2   F   0.921438434103834   0.923170996922195   0.524757706681179   1.0
F3   F   0.936316016470094   0.421458325452562   0.969410673600166   1.0
H4   H   0.481192267814002   0.696929018556169   0.250488675587654   1.0
H5   H   0.740212390902279   0.350219002811357   0.326517505175296   1.0
H6   H   0.627784622001059   0.699115175533088   0.583410736787805   1.0
H7   H   0.151487702232472   0.401262804350452   0.463851675012833   1.0
H8   H   0.334332349589239   0.404181952200389   0.811996014394886   1.0
H9   H   0.252660485698172   0.738451020918603   0.639090709803227   1.0
H10   H   0.455895520236744   0.178850278070783   0.232911138011396   1.0
H11   H   0.590552270433221   0.166004617211861   0.613481760263994   1.0
C12   C   0.292994150124286   0.525911433450425   0.600871104998731   1.0
C13   C   0.577504596226959   0.295007065715581   0.402802857680982   1.0
Sn14   Sn   0.000586287203532   0.939432746462671   0.024852192848755   1.0
N15   N   0.498237346079726   0.574495687516652   0.451470109888113   1.0




# HOIP entry ID:                    0477
# Khazana ID:                       2327
# Organic cation source:            B.Saparov et al., Chem. Rev. 116, 4558 (2016)
# Label:                            Dimethylammonium Tin Fluoride
# Material class:                   Hybrid organic-inorganic perovskite ( MC_ino )
# Geometry class:                   Bulk crystalline materials ( GC_cry )
# Organic cation chemical formula:  (CH3)2NH2
# Number of atom types:             5
# Total number of atoms:            15
# Atom types:                       C H N  Sn F
# Number of each atom:              2 8 1  1 3
# Bandgap, HSE06 (eV):              4.8585
# Bandgap, GGA (eV):                3.7822
# Kpoint for VBM:                   0.5, 0.5, 0.5
# Kpoint for CBM:                   0.5, -0.0556, 0.0556
# Dielectric constant, electronic:  2.9999
# Dielectric constant, ionic:       10.0704
# Dielectric constant, total:       13.0703
# Refractive index:                 1.732
# Atomization energy (eV/atom):     -4.72
# Relative energy1 (eV/atom):       -0.3728
# Relative energy2 (eV/atom):       0.2675
# Volume of the unit cell (A^3):    123.11
# Density (g/cm^3):                 2.9917
# Tool:                             VASP
# Pseudopotential:                  PAW
# Note:                             ENCUT=400eV, k-spacing_relax=0.20/Angstrom, k-spacing_bandgap=0.15/Angstrom
# Created by:                       C.Kim, T.D.Huan, S.Krishnan, R. Ramprasad