data_1
_audit_creation_method   'Generated by vasp2cif'
_cell_length_a    5.99757279866
_cell_length_b    4.61861077863
_cell_length_c    4.57297024114
_cell_angle_alpha    84.5934113795
_cell_angle_beta    100.49962655
_cell_angle_gamma    99.2091941691

_symmetry_space_group_name_H-M    'P 1'
loop_
_atom_site_label
_atom_site_type_symbol
_atom_site_fract_x
_atom_site_fract_y
_atom_site_fract_z
_atom_site_occupancy
F1   F   0.606807025453016   0.884452368157767   0.951109613865206   1.0
F2   F   0.887709209749595   0.937363169696994   0.517018744415346   1.0
F3   F   0.914009349993570   0.431554291836015   0.960779515303891   1.0
H4   H   0.420687378423544   0.709667202110850   0.228630962989442   1.0
H5   H   0.699205288322432   0.386722012787146   0.274883467434407   1.0
H6   H   0.591105734859937   0.729681561454491   0.549772508553986   1.0
H7   H   0.118887830082159   0.401928926895358   0.467995729143531   1.0
H8   H   0.323385929866994   0.405460770751382   0.804234872024395   1.0
H9   H   0.217744266577704   0.734163457979051   0.647179416613653   1.0
H10   H   0.418039574746814   0.190232349417329   0.235407753139626   1.0
H11   H   0.592008263484210   0.210155423573134   0.596405425626877   1.0
C12   C   0.263984997892059   0.529287823298461   0.598909857875896   1.0
C13   C   0.550040399421491   0.324236862986069   0.380766398095467   1.0
Sn14   Sn   0.967921742579641   0.952461077915416   0.018566410147592   1.0
N15   N   0.458856299084431   0.594422508730084   0.430870218366472   1.0




# HOIP entry ID:                    0478
# Khazana ID:                       2328
# Organic cation source:            B.Saparov et al., Chem. Rev. 116, 4558 (2016)
# Label:                            Dimethylammonium Tin Fluoride
# Material class:                   Hybrid organic-inorganic perovskite ( MC_ino )
# Geometry class:                   Bulk crystalline materials ( GC_cry )
# Organic cation chemical formula:  (CH3)2NH2
# Number of atom types:             5
# Total number of atoms:            15
# Atom types:                       C H N  Sn F
# Number of each atom:              2 8 1  1 3
# Bandgap, HSE06 (eV):              4.893
# Bandgap, GGA (eV):                3.8003
# Kpoint for VBM:                   0.5, 0.5, 0.5
# Kpoint for CBM:                   0.5, -0.0556, 0.0556
# Dielectric constant, electronic:  3.0153
# Dielectric constant, ionic:       9.0859
# Dielectric constant, total:       12.1012
# Refractive index:                 1.7365
# Atomization energy (eV/atom):     -4.7186
# Relative energy1 (eV/atom):       -0.3715
# Relative energy2 (eV/atom):       0.2689
# Volume of the unit cell (A^3):    122.67
# Density (g/cm^3):                 3.0025
# Tool:                             VASP
# Pseudopotential:                  PAW
# Note:                             ENCUT=400eV, k-spacing_relax=0.20/Angstrom, k-spacing_bandgap=0.15/Angstrom
# Created by:                       C.Kim, T.D.Huan, S.Krishnan, R. Ramprasad