data_1
_audit_creation_method   'Generated by vasp2cif'
_cell_length_a    5.46279911049
_cell_length_b    4.76456662239
_cell_length_c    4.98182589741
_cell_angle_alpha    84.3395269165
_cell_angle_beta    80.0955564113
_cell_angle_gamma    74.5902927996

_symmetry_space_group_name_H-M    'P 1'
loop_
_atom_site_label
_atom_site_type_symbol
_atom_site_fract_x
_atom_site_fract_y
_atom_site_fract_z
_atom_site_occupancy
F1   F   0.054194196024689   0.972321501045343   0.542226314292606   1.0
F2   F   0.635198524662499   0.034989804496277   0.002867243052371   1.0
F3   F   0.960603680718670   0.418430253126566   0.006322645161376   1.0
H4   H   0.389556098156802   0.772826190820844   0.331323206259711   1.0
H5   H   0.256761281986357   0.336287615056349   0.290605242694269   1.0
H6   H   0.636428824960262   0.518000463039527   0.182692671908633   1.0
H7   H   0.549026090333939   0.637215099452852   0.764504661119339   1.0
H8   H   0.811311018685842   0.383533415099379   0.584185573911192   1.0
H9   H   0.769977519415193   0.764125831229990   0.510017751153825   1.0
H10   H   0.228064346206850   0.428508128406136   0.634434008083169   1.0
H11   H   0.492594196703266   0.149276993498006   0.498815650578713   1.0
C12   C   0.673427163531436   0.591691812513957   0.570850896968373   1.0
C13   C   0.359856524312654   0.354267732314980   0.452305516512723   1.0
Sn14   Sn   0.034093720983840   0.939061670702145   0.981053945851031   1.0
N15   N   0.513176813317770   0.572983489197583   0.362334672452661   1.0




# HOIP entry ID:                    0480
# Khazana ID:                       2330
# Organic cation source:            B.Saparov et al., Chem. Rev. 116, 4558 (2016)
# Label:                            Dimethylammonium Tin Fluoride
# Material class:                   Hybrid organic-inorganic perovskite ( MC_ino )
# Geometry class:                   Bulk crystalline materials ( GC_cry )
# Organic cation chemical formula:  (CH3)2NH2
# Number of atom types:             5
# Total number of atoms:            15
# Atom types:                       C H N  Sn F
# Number of each atom:              2 8 1  1 3
# Bandgap, HSE06 (eV):              4.7575
# Bandgap, GGA (eV):                3.6679
# Kpoint for VBM:                   0.5, 0.5, 0.5
# Kpoint for CBM:                   0.5, 0.5, 0.5
# Dielectric constant, electronic:  2.9576
# Dielectric constant, ionic:       4.2848
# Dielectric constant, total:       7.2424
# Refractive index:                 1.7198
# Atomization energy (eV/atom):     -4.718
# Relative energy1 (eV/atom):       -0.3708
# Relative energy2 (eV/atom):       0.2695
# Volume of the unit cell (A^3):    122.95
# Density (g/cm^3):                 2.9956
# Tool:                             VASP
# Pseudopotential:                  PAW
# Note:                             ENCUT=400eV, k-spacing_relax=0.20/Angstrom, k-spacing_bandgap=0.15/Angstrom
# Created by:                       C.Kim, T.D.Huan, S.Krishnan, R. Ramprasad