data_1
_audit_creation_method   'Generated by vasp2cif'
_cell_length_a    4.92440118251
_cell_length_b    3.6786070325
_cell_length_c    7.07355917639
_cell_angle_alpha    90.7211129573
_cell_angle_beta    79.7160870332
_cell_angle_gamma    100.49104233

_symmetry_space_group_name_H-M    'P 1'
loop_
_atom_site_label
_atom_site_type_symbol
_atom_site_fract_x
_atom_site_fract_y
_atom_site_fract_z
_atom_site_occupancy
F1   F   0.079812463377131   0.126589725396713   0.175067670440860   1.0
F2   F   0.480978043527280   0.781047110757498   0.917501793833459   1.0
F3   F   0.130528560144299   0.087869167908046   0.724717505426909   1.0
H4   H   0.826673817506808   0.327977526417556   0.419477249578662   1.0
H5   H   0.334726702868288   0.401757578697335   0.587980288985221   1.0
H6   H   0.475937118464849   0.821381292362524   0.632395989498598   1.0
H7   H   0.445715891099645   0.490353413143232   0.249067928679395   1.0
H8   H   0.281641016198279   0.855499532813276   0.349960705431450   1.0
H9   H   0.650746582092133   0.932206153899614   0.275763554341438   1.0
H10   H   0.736034781869904   0.329959249874697   0.676535772365256   1.0
H11   H   0.927360621734117   0.733587701155216   0.547880549951792   1.0
C12   C   0.467772709762393   0.732950758302614   0.337767596071011   1.0
C13   C   0.767626354055054   0.490440440405358   0.543948498014899   1.0
Sn14   Sn   0.030872325739232   0.663073730559539   0.972631091470063   1.0
N15   N   0.498333011560604   0.616706618306843   0.533353805910899   1.0




# HOIP entry ID:                    0482
# Khazana ID:                       2332
# Organic cation source:            B.Saparov et al., Chem. Rev. 116, 4558 (2016)
# Label:                            Dimethylammonium Tin Fluoride
# Material class:                   Hybrid organic-inorganic perovskite ( MC_ino )
# Geometry class:                   Bulk crystalline materials ( GC_cry )
# Organic cation chemical formula:  (CH3)2NH2
# Number of atom types:             5
# Total number of atoms:            15
# Atom types:                       C H N  Sn F
# Number of each atom:              2 8 1  1 3
# Bandgap, HSE06 (eV):              5.1126
# Bandgap, GGA (eV):                3.961
# Kpoint for VBM:                   0.5, 0.5, 0.5
# Kpoint for CBM:                   -0.4375, 0, 0.25
# Dielectric constant, electronic:  2.8902
# Dielectric constant, ionic:       4.8692
# Dielectric constant, total:       7.7594
# Refractive index:                 1.7001
# Atomization energy (eV/atom):     -4.704
# Relative energy1 (eV/atom):       -0.3569
# Relative energy2 (eV/atom):       0.2835
# Volume of the unit cell (A^3):    123.94
# Density (g/cm^3):                 2.9717
# Tool:                             VASP
# Pseudopotential:                  PAW
# Note:                             ENCUT=400eV, k-spacing_relax=0.20/Angstrom, k-spacing_bandgap=0.15/Angstrom
# Created by:                       C.Kim, T.D.Huan, S.Krishnan, R. Ramprasad