data_1
_audit_creation_method   'Generated by vasp2cif'
_cell_length_a    4.91180080179
_cell_length_b    3.7124562163
_cell_length_c    7.05366086503
_cell_angle_alpha    90.3411419494
_cell_angle_beta    80.0226099681
_cell_angle_gamma    100.817141241

_symmetry_space_group_name_H-M    'P 1'
loop_
_atom_site_label
_atom_site_type_symbol
_atom_site_fract_x
_atom_site_fract_y
_atom_site_fract_z
_atom_site_occupancy
F1   F   0.071334191975467   0.097084910851926   0.163726784430573   1.0
F2   F   0.474112002067386   0.761682082082139   0.906411630647746   1.0
F3   F   0.117782742748972   0.056453849676870   0.713245957557291   1.0
H4   H   0.811178625907623   0.292721500846270   0.409199371681048   1.0
H5   H   0.324176007426772   0.373130723927538   0.580083156262589   1.0
H6   H   0.472837110396043   0.787514321910457   0.624372003048101   1.0
H7   H   0.428347366843177   0.464520891879545   0.241164021612796   1.0
H8   H   0.274964196309732   0.832928461241977   0.342134096513057   1.0
H9   H   0.643768586739000   0.898142007524356   0.265443777304185   1.0
H10   H   0.727085392927968   0.295569240282866   0.666778900666337   1.0
H11   H   0.921577778849027   0.694028179309960   0.535038121203691   1.0
C12   C   0.457751133104921   0.704713133810380   0.329136502436768   1.0
C13   C   0.757718180320779   0.455048263108488   0.533546075672767   1.0
Sn14   Sn   0.021230960615455   0.641841643657891   0.962345517735521   1.0
N15   N   0.489735723767645   0.585630789889422   0.524744083227539   1.0




# HOIP entry ID:                    0483
# Khazana ID:                       2333
# Organic cation source:            B.Saparov et al., Chem. Rev. 116, 4558 (2016)
# Label:                            Dimethylammonium Tin Fluoride
# Material class:                   Hybrid organic-inorganic perovskite ( MC_ino )
# Geometry class:                   Bulk crystalline materials ( GC_cry )
# Organic cation chemical formula:  (CH3)2NH2
# Number of atom types:             5
# Total number of atoms:            15
# Atom types:                       C H N  Sn F
# Number of each atom:              2 8 1  1 3
# Bandgap, HSE06 (eV):              5.1369
# Bandgap, GGA (eV):                3.9848
# Kpoint for VBM:                   0.5, 0.5, 0.5
# Kpoint for CBM:                   -0.4375, 0, 0.25
# Dielectric constant, electronic:  2.8799
# Dielectric constant, ionic:       4.4105
# Dielectric constant, total:       7.2904
# Refractive index:                 1.697
# Atomization energy (eV/atom):     -4.7054
# Relative energy1 (eV/atom):       -0.3583
# Relative energy2 (eV/atom):       0.2821
# Volume of the unit cell (A^3):    124.38
# Density (g/cm^3):                 2.9612
# Tool:                             VASP
# Pseudopotential:                  PAW
# Note:                             ENCUT=400eV, k-spacing_relax=0.20/Angstrom, k-spacing_bandgap=0.15/Angstrom
# Created by:                       C.Kim, T.D.Huan, S.Krishnan, R. Ramprasad