data_1
_audit_creation_method   'Generated by vasp2cif'
_cell_length_a    6.52425907741
_cell_length_b    3.5794081564
_cell_length_c    5.74251089931
_cell_angle_alpha    98.4348010779
_cell_angle_beta    97.1893898056
_cell_angle_gamma    105.922355662

_symmetry_space_group_name_H-M    'P 1'
loop_
_atom_site_label
_atom_site_type_symbol
_atom_site_fract_x
_atom_site_fract_y
_atom_site_fract_z
_atom_site_occupancy
F1   F   0.192890817567161   0.034215763533915   0.958973372952485   1.0
F2   F   0.949884338645958   0.351661300851283   0.597120416472002   1.0
F3   F   0.696830770763128   0.737527925056000   0.826642552642355   1.0
H4   H   0.431834459324492   0.586456170710974   0.183172459370290   1.0
H5   H   0.553123642520099   0.899089051071726   0.619241421011132   1.0
H6   H   0.634365595217005   0.322372903854223   0.542972809228900   1.0
H7   H   0.180828164395777   0.830771120086176   0.505335778454331   1.0
H8   H   0.315326285856550   0.312001311182350   0.667735560492261   1.0
H9   H   0.247849912194127   0.228715961089293   0.349513146390940   1.0
H10   H   0.714739350784988   0.828585973958631   0.287614961834500   1.0
H11   H   0.548055510690389   0.061069146474758   0.127839810141602   1.0
C12   C   0.297904351852431   0.110659774525217   0.501831284119710   1.0
C13   C   0.554699088106943   0.866915882463516   0.254235375081194   1.0
Sn14   Sn   0.958224668125432   0.448150547747936   0.966007721922914   1.0
N15   N   0.516003043955500   0.054327167394021   0.488803329885336   1.0




# HOIP entry ID:                    0484
# Khazana ID:                       2334
# Organic cation source:            B.Saparov et al., Chem. Rev. 116, 4558 (2016)
# Label:                            Dimethylammonium Tin Fluoride
# Material class:                   Hybrid organic-inorganic perovskite ( MC_ino )
# Geometry class:                   Bulk crystalline materials ( GC_cry )
# Organic cation chemical formula:  (CH3)2NH2
# Number of atom types:             5
# Total number of atoms:            15
# Atom types:                       C H N  Sn F
# Number of each atom:              2 8 1  1 3
# Bandgap, HSE06 (eV):              5.0386
# Bandgap, GGA (eV):                3.9292
# Kpoint for VBM:                   0, 0.5, 0.5
# Kpoint for CBM:                   0.5, 0, 0
# Dielectric constant, electronic:  2.8406
# Dielectric constant, ionic:       8.1927
# Dielectric constant, total:       11.0333
# Refractive index:                 1.6854
# Atomization energy (eV/atom):     -4.6991
# Relative energy1 (eV/atom):       -0.352
# Relative energy2 (eV/atom):       0.2884
# Volume of the unit cell (A^3):    125.62
# Density (g/cm^3):                 2.932
# Tool:                             VASP
# Pseudopotential:                  PAW
# Note:                             ENCUT=400eV, k-spacing_relax=0.20/Angstrom, k-spacing_bandgap=0.15/Angstrom
# Created by:                       C.Kim, T.D.Huan, S.Krishnan, R. Ramprasad