data_1
_audit_creation_method   'Generated by vasp2cif'
_cell_length_a    4.48913860437
_cell_length_b    3.75143080051
_cell_length_c    7.28570294187
_cell_angle_alpha    81.3861708005
_cell_angle_beta    84.2676975691
_cell_angle_gamma    88.899684067

_symmetry_space_group_name_H-M    'P 1'
loop_
_atom_site_label
_atom_site_type_symbol
_atom_site_fract_x
_atom_site_fract_y
_atom_site_fract_z
_atom_site_occupancy
F1   F   0.945791128053519   0.121673894527739   0.794448822497115   1.0
F2   F   0.407625181346473   0.899657897287618   0.043891305437095   1.0
F3   F   0.862997270576051   0.986991328777337   0.286602816872020   1.0
H4   H   0.177840439145733   0.151546478385209   0.510823990222332   1.0
H5   H   0.716259958768073   0.234805238607031   0.538582029539008   1.0
H6   H   0.690839329451395   0.648572522381195   0.425128848433431   1.0
H7   H   0.436154050673318   0.353916433004619   0.804162357296451   1.0
H8   H   0.647288420003325   0.753368768518555   0.722139108551120   1.0
H9   H   0.267620067845741   0.733591873137743   0.676942235714425   1.0
H10   H   0.399539387682088   0.231604303141723   0.291205047806463   1.0
H11   H   0.189113165174333   0.589317074189433   0.378923821577365   1.0
C12   C   0.472487574402080   0.580686734929263   0.693824296912287   1.0
C13   C   0.314799599328445   0.343558173906165   0.415042686676696   1.0
Sn14   Sn   0.925281689384509   0.709115060642643   0.035724359529977   1.0
N15   N   0.570586433719634   0.445646071997334   0.513669417053225   1.0




# HOIP entry ID:                    0485
# Khazana ID:                       2335
# Organic cation source:            B.Saparov et al., Chem. Rev. 116, 4558 (2016)
# Label:                            Dimethylammonium Tin Fluoride
# Material class:                   Hybrid organic-inorganic perovskite ( MC_ino )
# Geometry class:                   Bulk crystalline materials ( GC_cry )
# Organic cation chemical formula:  (CH3)2NH2
# Number of atom types:             5
# Total number of atoms:            15
# Atom types:                       C H N  Sn F
# Number of each atom:              2 8 1  1 3
# Bandgap, HSE06 (eV):              5.0441
# Bandgap, GGA (eV):                3.8958
# Kpoint for VBM:                   0.5, 0.5, 0
# Kpoint for CBM:                   0.0556, 0.5, 0
# Dielectric constant, electronic:  2.9742
# Dielectric constant, ionic:       8.4973
# Dielectric constant, total:       11.4714
# Refractive index:                 1.7246
# Atomization energy (eV/atom):     -4.7005
# Relative energy1 (eV/atom):       -0.3534
# Relative energy2 (eV/atom):       0.287
# Volume of the unit cell (A^3):    120.7
# Density (g/cm^3):                 3.0515
# Tool:                             VASP
# Pseudopotential:                  PAW
# Note:                             ENCUT=400eV, k-spacing_relax=0.20/Angstrom, k-spacing_bandgap=0.15/Angstrom
# Created by:                       C.Kim, T.D.Huan, S.Krishnan, R. Ramprasad