data_1
_audit_creation_method   'Generated by vasp2cif'
_cell_length_a    5.06604502746
_cell_length_b    5.1835258895
_cell_length_c    5.21266752768
_cell_angle_alpha    88.4222896438
_cell_angle_beta    104.256066302
_cell_angle_gamma    75.9694493616

_symmetry_space_group_name_H-M    'P 1'
loop_
_atom_site_label
_atom_site_type_symbol
_atom_site_fract_x
_atom_site_fract_y
_atom_site_fract_z
_atom_site_occupancy
C1   C   0.323672801238814   0.413189710903921   0.592832483746058   1.0
C2   C   0.518144438856325   0.527185446482548   0.480833461394127   1.0
H3   H   0.736533744509920   0.490991906606112   0.192301149009772   1.0
H4   H   0.731091786325656   0.822099612383596   0.518086168196362   1.0
H5   H   0.336473952816782   0.208025200554111   0.550279732353417   1.0
H6   H   0.109052223001804   0.529934330190251   0.502423603095274   1.0
H7   H   0.362777273392567   0.426798080951961   0.805219931669100   1.0
H8   H   0.540442239800782   0.803366855675939   0.747766087010625   1.0
H9   H   0.547946646595541   0.257057106755028   0.209186651233068   1.0
F10   F   0.000607246042875   0.997141815315921   0.616915204942963   1.0
F11   F   0.002207519842038   0.392951674245360   0.011887878853848   1.0
F12   F   0.515860642744386   0.964310441665880   0.043074205825150   1.0
N13   N   0.595600240128952   0.428380353802794   0.272591616593353   1.0
N14   N   0.590214973216234   0.739696157288627   0.578376659895014   1.0
Sn15   Sn   0.074314271487374   0.969151307177953   0.038105166181843   1.0




# HOIP entry ID:                    0486
# Khazana ID:                       2336
# Organic cation source:            C.C.Stoumpos et al., J. Am. Chem. Soc. 137, 6804 (2015)
# Label:                            Acetamidinium Tin Fluoride
# Material class:                   Hybrid organic-inorganic perovskite ( MC_ino )
# Geometry class:                   Bulk crystalline materials ( GC_cry )
# Organic cation chemical formula:  CH3C(NH2)2
# Number of atom types:             5
# Total number of atoms:            15
# Atom types:                       C H N  Sn F
# Number of each atom:              2 7 2  1 3
# Bandgap, HSE06 (eV):              4.3987
# Bandgap, GGA (eV):                3.2079
# Kpoint for VBM:                   0.5, 0.5, 0.5
# Kpoint for CBM:                   0.5, 0.5, 0.5
# Dielectric constant, electronic:  3.0444
# Dielectric constant, ionic:       3.1702
# Dielectric constant, total:       6.2146
# Refractive index:                 1.7448
# Atomization energy (eV/atom):     -5.025
# Relative energy1 (eV/atom):       -0.2518
# Relative energy2 (eV/atom):       0.3886
# Volume of the unit cell (A^3):    128.16
# Density (g/cm^3):                 3.0423
# Tool:                             VASP
# Pseudopotential:                  PAW
# Note:                             ENCUT=400eV, k-spacing_relax=0.20/Angstrom, k-spacing_bandgap=0.15/Angstrom
# Created by:                       C.Kim, T.D.Huan, S.Krishnan, R. Ramprasad