data_1
_audit_creation_method   'Generated by vasp2cif'
_cell_length_a    5.03186987517
_cell_length_b    5.27125952256
_cell_length_c    5.18767546249
_cell_angle_alpha    91.7562847089
_cell_angle_beta    104.153858836
_cell_angle_gamma    104.243224487

_symmetry_space_group_name_H-M    'P 1'
loop_
_atom_site_label
_atom_site_type_symbol
_atom_site_fract_x
_atom_site_fract_y
_atom_site_fract_z
_atom_site_occupancy
C1   C   0.672763249688543   0.505676492688835   0.517736742784578   1.0
C2   C   0.495336473179201   0.629300600307133   0.644430780731433   1.0
H3   H   0.284185875363640   0.593664496145230   0.940978660313014   1.0
H4   H   0.278477666489181   0.916872461541026   0.611301841218108   1.0
H5   H   0.829607909481673   0.442570099401315   0.666692440543024   1.0
H6   H   0.779950168174423   0.636740426412508   0.396659812581454   1.0
H7   H   0.537886871498202   0.332086539724742   0.388875440888022   1.0
H8   H   0.470727214164626   0.901025574062928   0.378934191368131   1.0
H9   H   0.480099861059557   0.369350496743138   0.923320546126632   1.0
F10   F   0.010626970500830   0.097936864636850   0.506222281754624   1.0
F11   F   0.011933083747195   0.482818532804686   0.114407679665604   1.0
F12   F   0.493441957993717   0.059715932240337   0.073025571847360   1.0
N13   N   0.425834300959920   0.534387455876505   0.858379414832164   1.0
N14   N   0.418025820637709   0.835778377737434   0.546836634868448   1.0
Sn15   Sn   0.938172577061628   0.066125649677261   0.081207960477442   1.0




# HOIP entry ID:                    0487
# Khazana ID:                       2337
# Organic cation source:            C.C.Stoumpos et al., J. Am. Chem. Soc. 137, 6804 (2015)
# Label:                            Acetamidinium Tin Fluoride
# Material class:                   Hybrid organic-inorganic perovskite ( MC_ino )
# Geometry class:                   Bulk crystalline materials ( GC_cry )
# Organic cation chemical formula:  CH3C(NH2)2
# Number of atom types:             5
# Total number of atoms:            15
# Atom types:                       C H N  Sn F
# Number of each atom:              2 7 2  1 3
# Bandgap, HSE06 (eV):              4.7369
# Bandgap, GGA (eV):                3.5558
# Kpoint for VBM:                   0.5, 0.5, 0.5
# Kpoint for CBM:                   0.5, 0.5, 0
# Dielectric constant, electronic:  3.044
# Dielectric constant, ionic:       3.264
# Dielectric constant, total:       6.3079
# Refractive index:                 1.7447
# Atomization energy (eV/atom):     -5.0247
# Relative energy1 (eV/atom):       -0.2515
# Relative energy2 (eV/atom):       0.3889
# Volume of the unit cell (A^3):    128.72
# Density (g/cm^3):                 3.029
# Tool:                             VASP
# Pseudopotential:                  PAW
# Note:                             ENCUT=400eV, k-spacing_relax=0.20/Angstrom, k-spacing_bandgap=0.15/Angstrom
# Created by:                       C.Kim, T.D.Huan, S.Krishnan, R. Ramprasad