data_1
_audit_creation_method   'Generated by vasp2cif'
_cell_length_a    5.02275457391
_cell_length_b    5.41555624322
_cell_length_c    4.97782928207
_cell_angle_alpha    81.085775869
_cell_angle_beta    104.699257428
_cell_angle_gamma    87.8723284084

_symmetry_space_group_name_H-M    'P 1'
loop_
_atom_site_label
_atom_site_type_symbol
_atom_site_fract_x
_atom_site_fract_y
_atom_site_fract_z
_atom_site_occupancy
C1   C   0.617007416011965   0.482738474503861   0.387276598284267   1.0
C2   C   0.494155193671865   0.624091584453573   0.564621972157560   1.0
H3   H   0.224952432991031   0.614706756004693   0.816800620019784   1.0
H4   H   0.529478393687072   0.934937526786477   0.750429695161998   1.0
H5   H   0.654959238848811   0.608766520697280   0.210700078271948   1.0
H6   H   0.488566605590400   0.339041771042496   0.311192157296091   1.0
H7   H   0.815154794470274   0.390958926348496   0.513489017093605   1.0
H8   H   0.740651703388146   0.907120485223857   0.528154833023926   1.0
H9   H   0.250067892372364   0.353476899640000   0.652514452885818   1.0
F10   F   0.063741576859428   0.054204227078557   0.549061857480574   1.0
F11   F   0.069446109123334   0.712868167902130   0.080488082500494   1.0
F12   F   0.608270821403735   0.064701549563452   0.051103280290455   1.0
N13   N   0.310503928403854   0.524594590066300   0.688486353373186   1.0
N14   N   0.577500484769587   0.847492210817215   0.599262104661342   1.0
Sn15   Sn   0.044243408408093   0.100550309871608   0.096278897498948   1.0




# HOIP entry ID:                    0488
# Khazana ID:                       2338
# Organic cation source:            C.C.Stoumpos et al., J. Am. Chem. Soc. 137, 6804 (2015)
# Label:                            Acetamidinium Tin Fluoride
# Material class:                   Hybrid organic-inorganic perovskite ( MC_ino )
# Geometry class:                   Bulk crystalline materials ( GC_cry )
# Organic cation chemical formula:  CH3C(NH2)2
# Number of atom types:             5
# Total number of atoms:            15
# Atom types:                       C H N  Sn F
# Number of each atom:              2 7 2  1 3
# Bandgap, HSE06 (eV):              4.6773
# Bandgap, GGA (eV):                3.5358
# Kpoint for VBM:                   0.5, 0.5, 0.5
# Kpoint for CBM:                   0.5, 0.0714, 0.5
# Dielectric constant, electronic:  3.0445
# Dielectric constant, ionic:       3.7808
# Dielectric constant, total:       6.8253
# Refractive index:                 1.7448
# Atomization energy (eV/atom):     -5.0257
# Relative energy1 (eV/atom):       -0.2524
# Relative energy2 (eV/atom):       0.3879
# Volume of the unit cell (A^3):    128.97
# Density (g/cm^3):                 3.0232
# Tool:                             VASP
# Pseudopotential:                  PAW
# Note:                             ENCUT=400eV, k-spacing_relax=0.20/Angstrom, k-spacing_bandgap=0.15/Angstrom
# Created by:                       C.Kim, T.D.Huan, S.Krishnan, R. Ramprasad