data_1
_audit_creation_method   'Generated by vasp2cif'
_cell_length_a    7.73115147785
_cell_length_b    3.49098770208
_cell_length_c    4.86862692742
_cell_angle_alpha    99.0218190118
_cell_angle_beta    87.8006962378
_cell_angle_gamma    93.8264714873

_symmetry_space_group_name_H-M    'P 1'
loop_
_atom_site_label
_atom_site_type_symbol
_atom_site_fract_x
_atom_site_fract_y
_atom_site_fract_z
_atom_site_occupancy
C1   C   0.368535598780511   0.803032402096754   0.375451125533310   1.0
C2   C   0.526978732327031   0.753344193049244   0.527923490297781   1.0
H3   H   0.690430026532553   0.019433336038581   0.266460715293448   1.0
H4   H   0.790845655989692   0.833885578970673   0.528200568505987   1.0
H5   H   0.311327117649391   0.517120951371744   0.292876929944235   1.0
H6   H   0.271708334449627   0.949483019105891   0.514477785013192   1.0
H7   H   0.400864871981795   0.959976441691133   0.202783213896531   1.0
H8   H   0.615915827192183   0.495559212794817   0.842404506927267   1.0
H9   H   0.392049402056195   0.464703228524115   0.806371978940284   1.0
F10   F   0.976511426140526   0.532089842799948   0.566296225598670   1.0
F11   F   0.772404816601075   0.202471098844313   0.972814835012969   1.0
F12   F   0.203175257041799   0.210916575048095   0.903443576106596   1.0
N13   N   0.679523899539070   0.871570726430328   0.432363078273497   1.0
N14   N   0.510603683648704   0.584028184294418   0.753976354017240   1.0
Sn15   Sn   0.002315350069878   0.646925208939891   0.007535616638883   1.0




# HOIP entry ID:                    0489
# Khazana ID:                       2339
# Organic cation source:            C.C.Stoumpos et al., J. Am. Chem. Soc. 137, 6804 (2015)
# Label:                            Acetamidinium Tin Fluoride
# Material class:                   Hybrid organic-inorganic perovskite ( MC_ino )
# Geometry class:                   Bulk crystalline materials ( GC_cry )
# Organic cation chemical formula:  CH3C(NH2)2
# Number of atom types:             5
# Total number of atoms:            15
# Atom types:                       C H N  Sn F
# Number of each atom:              2 7 2  1 3
# Bandgap, HSE06 (eV):              4.4579
# Bandgap, GGA (eV):                3.329
# Kpoint for VBM:                   0.5, 0.5, 0.5
# Kpoint for CBM:                   0.5, 0, 0.5
# Dielectric constant, electronic:  3.051
# Dielectric constant, ionic:       4.8518
# Dielectric constant, total:       7.9029
# Refractive index:                 1.7467
# Atomization energy (eV/atom):     -5.0259
# Relative energy1 (eV/atom):       -0.2527
# Relative energy2 (eV/atom):       0.3877
# Volume of the unit cell (A^3):    129.43
# Density (g/cm^3):                 3.0124
# Tool:                             VASP
# Pseudopotential:                  PAW
# Note:                             ENCUT=400eV, k-spacing_relax=0.20/Angstrom, k-spacing_bandgap=0.15/Angstrom
# Created by:                       C.Kim, T.D.Huan, S.Krishnan, R. Ramprasad