data_1
_audit_creation_method   'Generated by vasp2cif'
_cell_length_a    4.7769415163
_cell_length_b    3.47290032782
_cell_length_c    8.37465592266
_cell_angle_alpha    109.773902456
_cell_angle_beta    87.6348980134
_cell_angle_gamma    97.9990765067

_symmetry_space_group_name_H-M    'P 1'
loop_
_atom_site_label
_atom_site_type_symbol
_atom_site_fract_x
_atom_site_fract_y
_atom_site_fract_z
_atom_site_occupancy
C1   C   0.363391877933836   0.545459795845716   0.628761095327782   1.0
C2   C   0.504979206172223   0.321120977384346   0.469073257950591   1.0
H3   H   0.482067451617496   0.113023515737844   0.210190284953761   1.0
H4   H   0.224047835843535   0.417140269582852   0.312606149171522   1.0
H5   H   0.288633677279982   0.329240071810780   0.694362899619456   1.0
H6   H   0.510928173527461   0.787069010469445   0.713978786946328   1.0
H7   H   0.183388529689274   0.673625686853306   0.601574121938519   1.0
H8   H   0.820313790801521   0.960188720814415   0.374483877280788   1.0
H9   H   0.800601375284486   0.170646878875040   0.595776720729297   1.0
F10   F   0.525353239481937   0.673376246766509   0.020612036417532   1.0
F11   F   0.939153065291393   0.527034156620260   0.214491246561224   1.0
F12   F   0.877932249691590   0.141567450771760   0.791140321572435   1.0
N13   N   0.393899037878803   0.276192474806258   0.321619240621125   1.0
N14   N   0.738521114444602   0.163094589367041   0.479289427486911   1.0
Sn15   Sn   0.976039375061866   0.767360154294423   0.990680533422683   1.0




# HOIP entry ID:                    0490
# Khazana ID:                       2340
# Organic cation source:            C.C.Stoumpos et al., J. Am. Chem. Soc. 137, 6804 (2015)
# Label:                            Acetamidinium Tin Fluoride
# Material class:                   Hybrid organic-inorganic perovskite ( MC_ino )
# Geometry class:                   Bulk crystalline materials ( GC_cry )
# Organic cation chemical formula:  CH3C(NH2)2
# Number of atom types:             5
# Total number of atoms:            15
# Atom types:                       C H N  Sn F
# Number of each atom:              2 7 2  1 3
# Bandgap, HSE06 (eV):              4.3173
# Bandgap, GGA (eV):                3.2133
# Kpoint for VBM:                   0.5, 0.5, 0
# Kpoint for CBM:                   0.5, 0, 0.5
# Dielectric constant, electronic:  3.0659
# Dielectric constant, ionic:       5.2948
# Dielectric constant, total:       8.3607
# Refractive index:                 1.751
# Atomization energy (eV/atom):     -5.0261
# Relative energy1 (eV/atom):       -0.2529
# Relative energy2 (eV/atom):       0.3875
# Volume of the unit cell (A^3):    129.47
# Density (g/cm^3):                 3.0115
# Tool:                             VASP
# Pseudopotential:                  PAW
# Note:                             ENCUT=400eV, k-spacing_relax=0.20/Angstrom, k-spacing_bandgap=0.15/Angstrom
# Created by:                       C.Kim, T.D.Huan, S.Krishnan, R. Ramprasad