data_1
_audit_creation_method   'Generated by vasp2cif'
_cell_length_a    4.60847210771
_cell_length_b    4.62855595649
_cell_length_c    4.953037368
_cell_angle_alpha    90.3854945204
_cell_angle_beta    106.140429644
_cell_angle_gamma    89.5305583789

_symmetry_space_group_name_H-M    'P 1'
loop_
_atom_site_label
_atom_site_type_symbol
_atom_site_fract_x
_atom_site_fract_y
_atom_site_fract_z
_atom_site_occupancy
F1   F   0.457831654616946   0.999862133163404   0.979325727447979   1.0
F2   F   0.817253378330726   0.999918202358636   0.586409411594403   1.0
F3   F   0.960892110015664   0.499550875516526   0.958758378906182   1.0
H4   H   0.397770477946708   0.494834933759030   0.184662264765727   1.0
H5   H   0.662921104747575   0.320955005178469   0.435518421675390   1.0
H6   H   0.649720010439800   0.687838048195935   0.430688517884171   1.0
H7   H   0.197190371177889   0.295974223602904   0.550622422810477   1.0
H8   H   0.464730082874482   0.508747841325807   0.793698977353600   1.0
H9   H   0.172414947497252   0.682644589979013   0.537997530872509   1.0
C10   C   0.321165077675332   0.496512407189819   0.581643965241270   1.0
Sn11   Sn   0.961563893340688   0.000016962415422   0.039846900889387   1.0
N12   N   0.523436891336885   0.500704777315050   0.391027480557980   1.0




# HOIP entry ID:                    0492
# Khazana ID:                       2342
# Organic cation source:            T.D.Huan et al., Phys. Rev. B 93,094105(2016)
# Label:                            Methylammonium Tin Fluoride
# Material class:                   Hybrid organic-inorganic perovskite ( MC_ino )
# Geometry class:                   Bulk crystalline materials ( GC_cry )
# Organic cation chemical formula:  CH3NH3
# Number of atom types:             5
# Total number of atoms:            12
# Atom types:                       C H N  Sn F
# Number of each atom:              1 6 1  1 3
# Bandgap, HSE06 (eV):              4.3195
# Bandgap, GGA (eV):                3.2677
# Kpoint for VBM:                   0.5, 0.5, 0.5
# Kpoint for CBM:                   0.5, 0.5, 0.5
# Dielectric constant, electronic:  3.1774
# Dielectric constant, ionic:       13.4166
# Dielectric constant, total:       16.594
# Refractive index:                 1.7825
# Atomization energy (eV/atom):     -4.6579
# Relative energy1 (eV/atom):       -0.3913
# Relative energy2 (eV/atom):       0.4092
# Volume of the unit cell (A^3):    101.48
# Density (g/cm^3):                 3.3999
# Tool:                             VASP
# Pseudopotential:                  PAW
# Note:                             ENCUT=400eV, k-spacing_relax=0.20/Angstrom, k-spacing_bandgap=0.15/Angstrom
# Created by:                       C.Kim, T.D.Huan, S.Krishnan, R. Ramprasad