data_1
_audit_creation_method   'Generated by vasp2cif'
_cell_length_a    4.50969245177
_cell_length_b    4.47090807163
_cell_length_c    5.13864236769
_cell_angle_alpha    90.821668599
_cell_angle_beta    80.4841943066
_cell_angle_gamma    91.0297916877

_symmetry_space_group_name_H-M    'P 1'
loop_
_atom_site_label
_atom_site_type_symbol
_atom_site_fract_x
_atom_site_fract_y
_atom_site_fract_z
_atom_site_occupancy
F1   F   0.010238173639578   0.009109498869876   0.455265783121632   1.0
F2   F   0.543165683689324   0.004480629333791   0.144299548309696   1.0
F3   F   0.943611680520270   0.504454670144149   0.135061976936456   1.0
H4   H   0.233353264378614   0.336147640711005   0.476168426234331   1.0
H5   H   0.534285841166657   0.497354507093036   0.296416607120989   1.0
H6   H   0.275260792977214   0.711662109369712   0.474383866420318   1.0
H7   H   0.665883827421901   0.269705501906763   0.676247849195427   1.0
H8   H   0.743847638383166   0.661218169430889   0.655216702979516   1.0
H9   H   0.426330173284455   0.525534078016094   0.877022636738459   1.0
C10   C   0.568930187471857   0.490230430820510   0.688685415522983   1.0
Sn11   Sn   0.026169790671730   0.004680442378216   0.030530573430738   1.0
N12   N   0.386912946395228   0.511572321926025   0.471710613989508   1.0




# HOIP entry ID:                    0493
# Khazana ID:                       2343
# Organic cation source:            T.D.Huan et al., Phys. Rev. B 93,094105(2016)
# Label:                            Methylammonium Tin Fluoride
# Material class:                   Hybrid organic-inorganic perovskite ( MC_ino )
# Geometry class:                   Bulk crystalline materials ( GC_cry )
# Organic cation chemical formula:  CH3NH3
# Number of atom types:             5
# Total number of atoms:            12
# Atom types:                       C H N  Sn F
# Number of each atom:              1 6 1  1 3
# Bandgap, HSE06 (eV):              4.9924
# Bandgap, GGA (eV):                3.8717
# Kpoint for VBM:                   0.5, 0.5, 0.5
# Kpoint for CBM:                   -0.0556, 0.0556, 0.5
# Dielectric constant, electronic:  3.0491
# Dielectric constant, ionic:       5.9769
# Dielectric constant, total:       9.026
# Refractive index:                 1.7462
# Atomization energy (eV/atom):     -4.6667
# Relative energy1 (eV/atom):       -0.4001
# Relative energy2 (eV/atom):       0.4003
# Volume of the unit cell (A^3):    102.16
# Density (g/cm^3):                 3.3772
# Tool:                             VASP
# Pseudopotential:                  PAW
# Note:                             ENCUT=400eV, k-spacing_relax=0.20/Angstrom, k-spacing_bandgap=0.15/Angstrom
# Created by:                       C.Kim, T.D.Huan, S.Krishnan, R. Ramprasad