data_1
_audit_creation_method   'Generated by vasp2cif'
_cell_length_a    4.35428280744
_cell_length_b    3.57995489015
_cell_length_c    6.43528475801
_cell_angle_alpha    84.7331817078
_cell_angle_beta    89.3940870158
_cell_angle_gamma    90.0156556155

_symmetry_space_group_name_H-M    'P 1'
loop_
_atom_site_label
_atom_site_type_symbol
_atom_site_fract_x
_atom_site_fract_y
_atom_site_fract_z
_atom_site_occupancy
F1   F   0.990921548066929   0.632911915115471   0.760050030564052   1.0
F2   F   0.484498299639945   0.441101176243279   0.049272961248221   1.0
F3   F   0.980810239623665   0.477649999146536   0.318700770618747   1.0
H4   H   0.280368073327153   0.742564279048253   0.405535625986353   1.0
H5   H   0.668285866702504   0.734256560850433   0.394055268717914   1.0
H6   H   0.475461189149442   0.106486986881023   0.291422300208907   1.0
H7   H   0.492811084433583   0.867512238330384   0.742713305546701   1.0
H8   H   0.703972632898932   0.245461462147759   0.610369972859786   1.0
H9   H   0.294463120369073   0.262980463904704   0.621944010302428   1.0
C10   C   0.493617069434947   0.084084229848571   0.614313347404476   1.0
Sn11   Sn   0.984171267109431   0.209141518535155   0.013057272146192   1.0
N12   N   0.477969609244461   0.902349169948401   0.414885134396251   1.0




# HOIP entry ID:                    0494
# Khazana ID:                       2344
# Organic cation source:            T.D.Huan et al., Phys. Rev. B 93,094105(2016)
# Label:                            Methylammonium Tin Fluoride
# Material class:                   Hybrid organic-inorganic perovskite ( MC_ino )
# Geometry class:                   Bulk crystalline materials ( GC_cry )
# Organic cation chemical formula:  CH3NH3
# Number of atom types:             5
# Total number of atoms:            12
# Atom types:                       C H N  Sn F
# Number of each atom:              1 6 1  1 3
# Bandgap, HSE06 (eV):              4.7053
# Bandgap, GGA (eV):                3.6282
# Kpoint for VBM:                   0.2632, 0.5, 0
# Kpoint for CBM:                   0.5, 0.0455, 0.5
# Dielectric constant, electronic:  3.0567
# Dielectric constant, ionic:       6.4999
# Dielectric constant, total:       9.5566
# Refractive index:                 1.7483
# Atomization energy (eV/atom):     -4.6346
# Relative energy1 (eV/atom):       -0.3679
# Relative energy2 (eV/atom):       0.4325
# Volume of the unit cell (A^3):    99.88
# Density (g/cm^3):                 3.4543
# Tool:                             VASP
# Pseudopotential:                  PAW
# Note:                             ENCUT=400eV, k-spacing_relax=0.20/Angstrom, k-spacing_bandgap=0.15/Angstrom
# Created by:                       C.Kim, T.D.Huan, S.Krishnan, R. Ramprasad