data_1
_audit_creation_method   'Generated by vasp2cif'
_cell_length_a    4.71805199638
_cell_length_b    3.67147437471
_cell_length_c    6.63373114623
_cell_angle_alpha    105.974687484
_cell_angle_beta    84.6027294275
_cell_angle_gamma    71.7530742583

_symmetry_space_group_name_H-M    'P 1'
loop_
_atom_site_label
_atom_site_type_symbol
_atom_site_fract_x
_atom_site_fract_y
_atom_site_fract_z
_atom_site_occupancy
F1   F   0.935143835719643   0.792091301988940   0.226975504075845   1.0
F2   F   0.447361875195433   0.871399396441390   0.959239578540753   1.0
F3   F   0.134882175090809   0.434812910848016   0.730899049495299   1.0
H4   H   0.797230600604635   0.227663771771375   0.448083083921915   1.0
H5   H   0.580444286218622   0.595275547928189   0.681413042656075   1.0
H6   H   0.795794023765446   0.688286382231119   0.499566546626305   1.0
H7   H   0.330245705707298   0.359427575234001   0.360730992458045   1.0
H8   H   0.227268049000976   0.888375688159634   0.501185650561268   1.0
H9   H   0.486446158337650   0.664299980473260   0.254505361922689   1.0
C10   C   0.404947308522125   0.615247807824026   0.399119312596575   1.0
Sn11   Sn   0.959457085854758   0.059542082459970   0.960005015241272   1.0
N12   N   0.659158895982515   0.527707554640102   0.519276861904011   1.0




# HOIP entry ID:                    0495
# Khazana ID:                       2345
# Organic cation source:            T.D.Huan et al., Phys. Rev. B 93,094105(2016)
# Label:                            Methylammonium Tin Fluoride
# Material class:                   Hybrid organic-inorganic perovskite ( MC_ino )
# Geometry class:                   Bulk crystalline materials ( GC_cry )
# Organic cation chemical formula:  CH3NH3
# Number of atom types:             5
# Total number of atoms:            12
# Atom types:                       C H N  Sn F
# Number of each atom:              1 6 1  1 3
# Bandgap, HSE06 (eV):              4.562
# Bandgap, GGA (eV):                3.4263
# Kpoint for VBM:                   0.5, 0.5, 0
# Kpoint for CBM:                   0.5, 0, 0.5
# Dielectric constant, electronic:  2.9958
# Dielectric constant, ionic:       7.1762
# Dielectric constant, total:       10.172
# Refractive index:                 1.7308
# Atomization energy (eV/atom):     -4.629
# Relative energy1 (eV/atom):       -0.3623
# Relative energy2 (eV/atom):       0.4381
# Volume of the unit cell (A^3):    102.85
# Density (g/cm^3):                 3.3546
# Tool:                             VASP
# Pseudopotential:                  PAW
# Note:                             ENCUT=400eV, k-spacing_relax=0.20/Angstrom, k-spacing_bandgap=0.15/Angstrom
# Created by:                       C.Kim, T.D.Huan, S.Krishnan, R. Ramprasad