data_1
_audit_creation_method   'Generated by vasp2cif'
_cell_length_a    6.34850046122
_cell_length_b    3.57935646572
_cell_length_c    4.57996386801
_cell_angle_alpha    78.3482754897
_cell_angle_beta    94.863522106
_cell_angle_gamma    90.3538716646

_symmetry_space_group_name_H-M    'P 1'
loop_
_atom_site_label
_atom_site_type_symbol
_atom_site_fract_x
_atom_site_fract_y
_atom_site_fract_z
_atom_site_occupancy
F1   F   0.186100591553711   0.733402917812974   0.090992264783580   1.0
F2   F   0.910740042760281   0.987935195051342   0.475885510751780   1.0
F3   F   0.671267798108197   0.754410841126358   0.013706271804999   1.0
H4   H   0.378063764458837   0.001209754981652   0.269254830687856   1.0
H5   H   0.621722735829216   0.026038106235333   0.442397858529368   1.0
H6   H   0.518098740228012   0.405802518409715   0.212248776367431   1.0
H7   H   0.355725591573545   0.042009739562523   0.786841226446001   1.0
H8   H   0.495332981181171   0.477273358052393   0.719666458227849   1.0
H9   H   0.238563027265023   0.448718574778482   0.536764867503486   1.0
C10   C   0.384273734068529   0.294892062695858   0.623477376738968   1.0
Sn11   Sn   0.932737148876704   0.179138473818654   0.968368147681204   1.0
N12   N   0.480213844096880   0.171528457474665   0.370966410477642   1.0




# HOIP entry ID:                    0496
# Khazana ID:                       2346
# Organic cation source:            T.D.Huan et al., Phys. Rev. B 93,094105(2016)
# Label:                            Methylammonium Tin Fluoride
# Material class:                   Hybrid organic-inorganic perovskite ( MC_ino )
# Geometry class:                   Bulk crystalline materials ( GC_cry )
# Organic cation chemical formula:  CH3NH3
# Number of atom types:             5
# Total number of atoms:            12
# Atom types:                       C H N  Sn F
# Number of each atom:              1 6 1  1 3
# Bandgap, HSE06 (eV):              4.7106
# Bandgap, GGA (eV):                3.6553
# Kpoint for VBM:                   0.5, 0.5, 0.5
# Kpoint for CBM:                   0, 0.0455, 0.5
# Dielectric constant, electronic:  3.0509
# Dielectric constant, ionic:       10.7647
# Dielectric constant, total:       13.8155
# Refractive index:                 1.7467
# Atomization energy (eV/atom):     -4.6407
# Relative energy1 (eV/atom):       -0.3741
# Relative energy2 (eV/atom):       0.4264
# Volume of the unit cell (A^3):    101.56
# Density (g/cm^3):                 3.3972
# Tool:                             VASP
# Pseudopotential:                  PAW
# Note:                             ENCUT=400eV, k-spacing_relax=0.20/Angstrom, k-spacing_bandgap=0.15/Angstrom
# Created by:                       C.Kim, T.D.Huan, S.Krishnan, R. Ramprasad