data_1
_audit_creation_method   'Generated by vasp2cif'
_cell_length_a    5.70447642042
_cell_length_b    4.25733708693
_cell_length_c    6.12855583661
_cell_angle_alpha    46.8743005298
_cell_angle_beta    96.0967732386
_cell_angle_gamma    98.896384767

_symmetry_space_group_name_H-M    'P 1'
loop_
_atom_site_label
_atom_site_type_symbol
_atom_site_fract_x
_atom_site_fract_y
_atom_site_fract_z
_atom_site_occupancy
F1   F   0.241617347843452   0.056843573399298   0.053165557341110   1.0
F2   F   0.945109954927858   0.690863586129396   0.555930639161900   1.0
F3   F   0.717865413394215   0.931776289342451   0.052399505287525   1.0
H4   H   0.636711860791273   0.508792898636869   0.550544075925401   1.0
H5   H   0.378418271947076   0.641087371259943   0.362604380285987   1.0
H6   H   0.380773528088007   0.263827862880575   0.743671724462956   1.0
H7   H   0.558670673628093   0.193918423761900   0.344738504690845   1.0
H8   H   0.573172167823159   0.802667105992370   0.744579757557375   1.0
H9   H   0.294126638076016   0.910663611832206   0.559569287769818   1.0
C10   C   0.473107858577208   0.047856270685685   0.550119367025076   1.0
Sn11   Sn   0.966275411804396   0.345598891682080   0.057526545424373   1.0
N12   N   0.464450873099274   0.390804114397184   0.551800655067673   1.0




# HOIP entry ID:                    0497
# Khazana ID:                       2347
# Organic cation source:            T.D.Huan et al., Phys. Rev. B 93,094105(2016)
# Label:                            Methylammonium Tin Fluoride
# Material class:                   Hybrid organic-inorganic perovskite ( MC_ino )
# Geometry class:                   Bulk crystalline materials ( GC_cry )
# Organic cation chemical formula:  CH3NH3
# Number of atom types:             5
# Total number of atoms:            12
# Atom types:                       C H N  Sn F
# Number of each atom:              1 6 1  1 3
# Bandgap, HSE06 (eV):              4.3958
# Bandgap, GGA (eV):                3.3088
# Kpoint for VBM:                   0, 0.5, 0
# Kpoint for CBM:                   0.5, 0.0455, 0.0455
# Dielectric constant, electronic:  2.8582
# Dielectric constant, ionic:       5.7903
# Dielectric constant, total:       8.6485
# Refractive index:                 1.6906
# Atomization energy (eV/atom):     -4.6515
# Relative energy1 (eV/atom):       -0.3848
# Relative energy2 (eV/atom):       0.4156
# Volume of the unit cell (A^3):    107.32
# Density (g/cm^3):                 3.2149
# Tool:                             VASP
# Pseudopotential:                  PAW
# Note:                             ENCUT=400eV, k-spacing_relax=0.20/Angstrom, k-spacing_bandgap=0.15/Angstrom
# Created by:                       C.Kim, T.D.Huan, S.Krishnan, R. Ramprasad