data_1
_audit_creation_method   'Generated by vasp2cif'
_cell_length_a    4.91806872407
_cell_length_b    5.02062028909
_cell_length_c    5.02646781252
_cell_angle_alpha    97.9624806724
_cell_angle_beta    97.4482739294
_cell_angle_gamma    97.3463483936

_symmetry_space_group_name_H-M    'P 1'
loop_
_atom_site_label
_atom_site_type_symbol
_atom_site_fract_x
_atom_site_fract_y
_atom_site_fract_z
_atom_site_occupancy
C1   C   0.296565761695021   0.285956401029765   0.331543304115805   1.0
H2   H   0.044618563170033   0.270083009904809   0.623288160625023   1.0
H3   H   0.043181648896656   0.577471202598417   0.317313613992006   1.0
H4   H   0.597645473926903   0.041989597404374   0.317212257498795   1.0
H5   H   0.596222294064432   0.272376259055029   0.086340191053125   1.0
H6   H   0.278037529704790   0.576396926437766   0.085505670409923   1.0
H7   H   0.278442199058517   0.036822412840699   0.619323281058612   1.0
F8   F   0.747098046051065   0.741975986241876   0.399724744459697   1.0
F9   F   0.748020021132945   0.352598864570837   0.787051190728519   1.0
F10   F   0.343814584525724   0.738595023351770   0.785684874028796   1.0
N11   N   0.188410736631482   0.179827670461492   0.530453138632424   1.0
N12   N   0.187837962258278   0.485911079074938   0.227177386729963   1.0
N13   N   0.503765261649541   0.182382156574001   0.227222905151237   1.0
Sn14   Sn   0.794439917234634   0.789803410454184   0.836219281516094   1.0




# HOIP entry ID:                    0498
# Khazana ID:                       2348
# Organic cation source:            B.Saparov et al., Chem. Rev. 116, 4558 (2016)
# Label:                            Guanidinium Tin Fluoride
# Material class:                   Hybrid organic-inorganic perovskite ( MC_ino )
# Geometry class:                   Bulk crystalline materials ( GC_cry )
# Organic cation chemical formula:  C(NH2)3
# Number of atom types:             5
# Total number of atoms:            14
# Atom types:                       C H N  Sn F
# Number of each atom:              1 6 3  1 3
# Bandgap, HSE06 (eV):              5.3174
# Bandgap, GGA (eV):                4.2025
# Kpoint for VBM:                   0.5, 0.5, 0.5
# Kpoint for CBM:                   0.5, 0.5, 0.5
# Dielectric constant, electronic:  3.0995
# Dielectric constant, ionic:       4.8748
# Dielectric constant, total:       7.9743
# Refractive index:                 1.7605
# Atomization energy (eV/atom):     -5.1045
# Relative energy1 (eV/atom):       -0.1014
# Relative energy2 (eV/atom):       0.5847
# Volume of the unit cell (A^3):    120.53
# Density (g/cm^3):                 3.2485
# Tool:                             VASP
# Pseudopotential:                  PAW
# Note:                             ENCUT=400eV, k-spacing_relax=0.20/Angstrom, k-spacing_bandgap=0.15/Angstrom
# Created by:                       C.Kim, T.D.Huan, S.Krishnan, R. Ramprasad