data_1
_audit_creation_method   'Generated by vasp2cif'
_cell_length_a    8.44070378056
_cell_length_b    3.38746096584
_cell_length_c    4.65752555831
_cell_angle_alpha    80.3080381064
_cell_angle_beta    96.3451802373
_cell_angle_gamma    113.607027376

_symmetry_space_group_name_H-M    'P 1'
loop_
_atom_site_label
_atom_site_type_symbol
_atom_site_fract_x
_atom_site_fract_y
_atom_site_fract_z
_atom_site_occupancy
C1   C   0.469838155996605   0.205361098914473   0.538332697298038   1.0
H2   H   0.356726222033068   0.359294564421106   0.842243004305317   1.0
H3   H   0.579079039072099   0.595105790192036   0.854947045341014   1.0
H4   H   0.627083451940123   0.147472996323337   0.253854548407134   1.0
H5   H   0.731577574738616   0.497278109980002   0.509680789046129   1.0
H6   H   0.220370271643219   0.790348330269602   0.551049904631206   1.0
H7   H   0.318409626096511   0.807305175906180   0.242234398721173   1.0
F8   F   0.944410452268386   0.970998308643161   0.562482180512824   1.0
F9   F   0.187417905708692   0.512433384590771   0.934218354437277   1.0
F10   F   0.749472768833499   0.070238536162044   0.973975523688772   1.0
N11   N   0.469263562974632   0.352238279901115   0.788550621762141   1.0
N12   N   0.318054152007584   0.959353395897736   0.412720155594577   1.0
N13   N   0.618205415475771   0.306354672937530   0.414662245914840   1.0
Sn14   Sn   0.971831401211318   0.854967355861092   0.039058530339496   1.0




# HOIP entry ID:                    0499
# Khazana ID:                       2349
# Organic cation source:            B.Saparov et al., Chem. Rev. 116, 4558 (2016)
# Label:                            Guanidinium Tin Fluoride
# Material class:                   Hybrid organic-inorganic perovskite ( MC_ino )
# Geometry class:                   Bulk crystalline materials ( GC_cry )
# Organic cation chemical formula:  C(NH2)3
# Number of atom types:             5
# Total number of atoms:            14
# Atom types:                       C H N  Sn F
# Number of each atom:              1 6 3  1 3
# Bandgap, HSE06 (eV):              4.1905
# Bandgap, GGA (eV):                3.2593
# Kpoint for VBM:                   0, 0.5, 0.5
# Kpoint for CBM:                   0.5, 0.5, 0.1667
# Dielectric constant, electronic:  3.2333
# Dielectric constant, ionic:       7.5346
# Dielectric constant, total:       10.7679
# Refractive index:                 1.7981
# Atomization energy (eV/atom):     -5.0954
# Relative energy1 (eV/atom):       -0.0923
# Relative energy2 (eV/atom):       0.5938
# Volume of the unit cell (A^3):    120.15
# Density (g/cm^3):                 3.2587
# Tool:                             VASP
# Pseudopotential:                  PAW
# Note:                             ENCUT=400eV, k-spacing_relax=0.20/Angstrom, k-spacing_bandgap=0.15/Angstrom
# Created by:                       C.Kim, T.D.Huan, S.Krishnan, R. Ramprasad