data_1
_audit_creation_method   'Generated by vasp2cif'
_cell_length_a    4.48245526717
_cell_length_b    4.44439779068
_cell_length_c    4.63903339059
_cell_angle_alpha    101.508187117
_cell_angle_beta    100.830840072
_cell_angle_gamma    78.5532927292

_symmetry_space_group_name_H-M    'P 1'
loop_
_atom_site_label
_atom_site_type_symbol
_atom_site_fract_x
_atom_site_fract_y
_atom_site_fract_z
_atom_site_occupancy
F1   F   0.063327949542530   0.035901719489809   0.487695558908163   1.0
F2   F   0.472032938196611   0.966888665964404   0.121254596083459   1.0
F3   F   0.983224894633198   0.447420553194532   0.134710357665330   1.0
H4   H   0.425999601339187   0.389300505155477   0.265802190203853   1.0
H5   H   0.763016213773042   0.461193627751034   0.465959308251427   1.0
H6   H   0.442262788940351   0.745237562970191   0.471093422472393   1.0
H7   H   0.292458879028600   0.261812561500905   0.607054939297335   1.0
Sn8   Sn   0.956747783639218   0.931619979730708   0.971560140310588   1.0
N9   N   0.528019452020649   0.511204971106556   0.461457008765083   1.0
O10   O   0.446649498886590   0.403939853136312   0.705402478042216   1.0




# HOIP entry ID:                    0500
# Khazana ID:                       2350
# Organic cation source:            G.Kieslich et al., Chem. Sci. 6, 3430 (2015)
# Label:                            Hydroxylammonium Tin Fluoride
# Material class:                   Hybrid organic-inorganic perovskite ( MC_ino )
# Geometry class:                   Bulk crystalline materials ( GC_cry )
# Organic cation chemical formula:  OHNH3
# Number of atom types:             5
# Total number of atoms:            10
# Atom types:                        H N O Sn F
# Number of each atom:               4 1  1 3
# Bandgap, HSE06 (eV):              4.9226
# Bandgap, GGA (eV):                3.7914
# Kpoint for VBM:                   0.5, 0.5, 0
# Kpoint for CBM:                   0.5, 0.0556, 0.5
# Dielectric constant, electronic:  3.3072
# Dielectric constant, ionic:       17.5972
# Dielectric constant, total:       20.9045
# Refractive index:                 1.8186
# Atomization energy (eV/atom):     -4.4991
# Relative energy1 (eV/atom):       -0.3166
# Relative energy2 (eV/atom):       0.6439
# Volume of the unit cell (A^3):    87.69
# Density (g/cm^3):                 3.9719
# Tool:                             VASP
# Pseudopotential:                  PAW
# Note:                             ENCUT=400eV, k-spacing_relax=0.20/Angstrom, k-spacing_bandgap=0.15/Angstrom
# Created by:                       C.Kim, T.D.Huan, S.Krishnan, R. Ramprasad