data_1
_audit_creation_method   'Generated by vasp2cif'
_cell_length_a    4.62290121214
_cell_length_b    3.72715124694
_cell_length_c    5.95086713837
_cell_angle_alpha    114.623243473
_cell_angle_beta    79.9449271882
_cell_angle_gamma    111.4094319

_symmetry_space_group_name_H-M    'P 1'
loop_
_atom_site_label
_atom_site_type_symbol
_atom_site_fract_x
_atom_site_fract_y
_atom_site_fract_z
_atom_site_occupancy
F1   F   0.965504743170335   0.142535563616619   0.776072189134993   1.0
F2   F   0.563148470151511   0.588414381044807   0.991386690368323   1.0
F3   F   0.875133343726240   0.465495091949556   0.308349153006183   1.0
H4   H   0.546493027630575   0.843028404265660   0.307687336639603   1.0
H5   H   0.712104939146798   0.037912961619270   0.591137943086387   1.0
H6   H   0.427521039344157   0.205251987488609   0.559338464555331   1.0
H7   H   0.097254157889488   0.549040384895569   0.465981656435161   1.0
Sn8   Sn   0.088057374007320   0.839895022265132   0.012659080861106   1.0
N9   N   0.512256131467545   0.958151262943645   0.498399458856106   1.0
O10   O   0.294046773465979   0.621484939911092   0.562768027056762   1.0




# HOIP entry ID:                    0501
# Khazana ID:                       2351
# Organic cation source:            G.Kieslich et al., Chem. Sci. 6, 3430 (2015)
# Label:                            Hydroxylammonium Tin Fluoride
# Material class:                   Hybrid organic-inorganic perovskite ( MC_ino )
# Geometry class:                   Bulk crystalline materials ( GC_cry )
# Organic cation chemical formula:  OHNH3
# Number of atom types:             5
# Total number of atoms:            10
# Atom types:                        H N O Sn F
# Number of each atom:               4 1  1 3
# Bandgap, HSE06 (eV):              4.8109
# Bandgap, GGA (eV):                3.5384
# Kpoint for VBM:                   0.3947, 0.3947, 0
# Kpoint for CBM:                   0.5, 0, 0.5
# Dielectric constant, electronic:  3.262
# Dielectric constant, ionic:       16.0653
# Dielectric constant, total:       19.3273
# Refractive index:                 1.8061
# Atomization energy (eV/atom):     -4.5045
# Relative energy1 (eV/atom):       -0.3219
# Relative energy2 (eV/atom):       0.6386
# Volume of the unit cell (A^3):    86.75
# Density (g/cm^3):                 4.0149
# Tool:                             VASP
# Pseudopotential:                  PAW
# Note:                             ENCUT=400eV, k-spacing_relax=0.20/Angstrom, k-spacing_bandgap=0.15/Angstrom
# Created by:                       C.Kim, T.D.Huan, S.Krishnan, R. Ramprasad