data_1
_audit_creation_method   'Generated by vasp2cif'
_cell_length_a    5.56702312288
_cell_length_b    3.91875956993
_cell_length_c    4.61231371393
_cell_angle_alpha    107.068636212
_cell_angle_beta    99.7852251881
_cell_angle_gamma    69.5645713676

_symmetry_space_group_name_H-M    'P 1'
loop_
_atom_site_label
_atom_site_type_symbol
_atom_site_fract_x
_atom_site_fract_y
_atom_site_fract_z
_atom_site_occupancy
F1   F   0.804439693257521   0.273988121279700   0.197246741158338   1.0
F2   F   0.100186749017432   0.801985806154065   0.556569764011847   1.0
F3   F   0.353831688948930   0.965390295204571   0.123881048867503   1.0
H4   H   0.378961814380581   0.382303352705236   0.576338559011283   1.0
H5   H   0.684381832516010   0.215718630109769   0.483671342372006   1.0
H6   H   0.624648528984437   0.383377341679477   0.859217879459798   1.0
H7   H   0.474272647424165   0.938665099764258   0.843756703961617   1.0
Sn8   Sn   0.053236469227436   0.687014861436850   0.060817924072218   1.0
N9   N   0.565535771885358   0.244375140852007   0.646650519760612   1.0
O10   O   0.589144804358185   0.881121350814063   0.675239517324705   1.0




# HOIP entry ID:                    0502
# Khazana ID:                       2352
# Organic cation source:            G.Kieslich et al., Chem. Sci. 6, 3430 (2015)
# Label:                            Hydroxylammonium Tin Fluoride
# Material class:                   Hybrid organic-inorganic perovskite ( MC_ino )
# Geometry class:                   Bulk crystalline materials ( GC_cry )
# Organic cation chemical formula:  OHNH3
# Number of atom types:             5
# Total number of atoms:            10
# Atom types:                        H N O Sn F
# Number of each atom:               4 1  1 3
# Bandgap, HSE06 (eV):              4.5701
# Bandgap, GGA (eV):                3.4683
# Kpoint for VBM:                   0.0714, 0.5, 0.5
# Kpoint for CBM:                   0.5, -0.0455, 0.0556
# Dielectric constant, electronic:  3.1022
# Dielectric constant, ionic:       8.1741
# Dielectric constant, total:       11.2763
# Refractive index:                 1.7613
# Atomization energy (eV/atom):     -4.4783
# Relative energy1 (eV/atom):       -0.2957
# Relative energy2 (eV/atom):       0.6648
# Volume of the unit cell (A^3):    89.88
# Density (g/cm^3):                 3.8751
# Tool:                             VASP
# Pseudopotential:                  PAW
# Note:                             ENCUT=400eV, k-spacing_relax=0.20/Angstrom, k-spacing_bandgap=0.15/Angstrom
# Created by:                       C.Kim, T.D.Huan, S.Krishnan, R. Ramprasad