data_1
_audit_creation_method   'Generated by vasp2cif'
_cell_length_a    5.27452116644
_cell_length_b    3.89714439344
_cell_length_c    4.71304284378
_cell_angle_alpha    114.947616068
_cell_angle_beta    93.373816102
_cell_angle_gamma    78.6503709006

_symmetry_space_group_name_H-M    'P 1'
loop_
_atom_site_label
_atom_site_type_symbol
_atom_site_fract_x
_atom_site_fract_y
_atom_site_fract_z
_atom_site_occupancy
F1   F   0.835643069879289   0.159182473242410   0.745267003417432   1.0
F2   F   0.229457225026628   0.671973532476045   0.970768713728596   1.0
F3   F   0.046183597103152   0.405303033363559   0.335824388263767   1.0
H4   H   0.242708218315123   0.091519602060345   0.497258458806421   1.0
H5   H   0.517679418040856   0.130087593367641   0.705873343280224   1.0
H6   H   0.269940148297565   0.964714461111512   0.805089855261762   1.0
H7   H   0.339714021573791   0.469070284487849   0.341673331919516   1.0
Sn8   Sn   0.830683736505854   0.764818199690161   0.096660046936108   1.0
N9   N   0.368031528530601   0.978945965096159   0.626986235701118   1.0
O10   O   0.494869036727252   0.585524855104325   0.436968622685022   1.0




# HOIP entry ID:                    0503
# Khazana ID:                       2353
# Organic cation source:            G.Kieslich et al., Chem. Sci. 6, 3430 (2015)
# Label:                            Hydroxylammonium Tin Fluoride
# Material class:                   Hybrid organic-inorganic perovskite ( MC_ino )
# Geometry class:                   Bulk crystalline materials ( GC_cry )
# Organic cation chemical formula:  OHNH3
# Number of atom types:             5
# Total number of atoms:            10
# Atom types:                        H N O Sn F
# Number of each atom:               4 1  1 3
# Bandgap, HSE06 (eV):              5.3276
# Bandgap, GGA (eV):                4.1602
# Kpoint for VBM:                   0.5, 0.3182, 0.3
# Kpoint for CBM:                   0.0625, 0, 0.45
# Dielectric constant, electronic:  3.2184
# Dielectric constant, ionic:       8.9544
# Dielectric constant, total:       12.1728
# Refractive index:                 1.794
# Atomization energy (eV/atom):     -4.4925
# Relative energy1 (eV/atom):       -0.3099
# Relative energy2 (eV/atom):       0.6506
# Volume of the unit cell (A^3):    86.09
# Density (g/cm^3):                 4.0457
# Tool:                             VASP
# Pseudopotential:                  PAW
# Note:                             ENCUT=400eV, k-spacing_relax=0.20/Angstrom, k-spacing_bandgap=0.15/Angstrom
# Created by:                       C.Kim, T.D.Huan, S.Krishnan, R. Ramprasad