data_1
_audit_creation_method   'Generated by vasp2cif'
_cell_length_a    6.16171108993
_cell_length_b    3.48106499291
_cell_length_c    4.71658970643
_cell_angle_alpha    73.0123915691
_cell_angle_beta    91.8659666414
_cell_angle_gamma    67.8308438951

_symmetry_space_group_name_H-M    'P 1'
loop_
_atom_site_label
_atom_site_type_symbol
_atom_site_fract_x
_atom_site_fract_y
_atom_site_fract_z
_atom_site_occupancy
F1   F   0.239308703395139   0.928736580293176   0.907055443665911   1.0
F2   F   0.897779813116735   0.813266427659286   0.588912041624468   1.0
F3   F   0.679562092081881   0.203833565705835   0.998378545892422   1.0
H4   H   0.500236828799039   0.715135736800228   0.176145496673755   1.0
H5   H   0.719289041588027   0.368839625215202   0.478669638845105   1.0
H6   H   0.438820386609130   0.328274117456097   0.741891300927634   1.0
H7   H   0.522099387679802   0.878393156848396   0.479072946819372   1.0
Sn8   Sn   0.006410968025506   0.577036747663506   0.065666399363799   1.0
N9   N   0.549248549215100   0.614322978742202   0.405615556749872   1.0
O10   O   0.388574229489606   0.416921063616087   0.521472629437646   1.0




# HOIP entry ID:                    0504
# Khazana ID:                       2354
# Organic cation source:            G.Kieslich et al., Chem. Sci. 6, 3430 (2015)
# Label:                            Hydroxylammonium Tin Fluoride
# Material class:                   Hybrid organic-inorganic perovskite ( MC_ino )
# Geometry class:                   Bulk crystalline materials ( GC_cry )
# Organic cation chemical formula:  OHNH3
# Number of atom types:             5
# Total number of atoms:            10
# Atom types:                        H N O Sn F
# Number of each atom:               4 1  1 3
# Bandgap, HSE06 (eV):              4.93
# Bandgap, GGA (eV):                3.8741
# Kpoint for VBM:                   -0.0714, -0.3462, 0.3889
# Kpoint for CBM:                   0.2857, 0.4615, 0.3333
# Dielectric constant, electronic:  3.1791
# Dielectric constant, ionic:       9.9445
# Dielectric constant, total:       13.1236
# Refractive index:                 1.783
# Atomization energy (eV/atom):     -4.4863
# Relative energy1 (eV/atom):       -0.3038
# Relative energy2 (eV/atom):       0.6568
# Volume of the unit cell (A^3):    88.43
# Density (g/cm^3):                 3.9387
# Tool:                             VASP
# Pseudopotential:                  PAW
# Note:                             ENCUT=400eV, k-spacing_relax=0.20/Angstrom, k-spacing_bandgap=0.15/Angstrom
# Created by:                       C.Kim, T.D.Huan, S.Krishnan, R. Ramprasad