data_1
_audit_creation_method   'Generated by vasp2cif'
_cell_length_a    5.27929067097
_cell_length_b    4.57961381186
_cell_length_c    4.69578129891
_cell_angle_alpha    70.7788388056
_cell_angle_beta    87.1699623952
_cell_angle_gamma    91.7301841732

_symmetry_space_group_name_H-M    'P 1'
loop_
_atom_site_label
_atom_site_type_symbol
_atom_site_fract_x
_atom_site_fract_y
_atom_site_fract_z
_atom_site_occupancy
Sn1   Sn   0.602325082464830   0.333350113837852   0.514303435766536   1.0
F2   F   0.658715451945980   0.846702468460506   0.399876146768989   1.0
F3   F   0.006182875801827   0.356591691230953   0.490336687442692   1.0
F4   F   0.642255453436590   0.471228151880311   0.023446359836825   1.0
N5   N   0.176768076922464   0.706546464321598   0.837003563203425   1.0
N6   N   0.191241577430418   0.008166499098202   0.145664030990147   1.0
H7   H   0.358771945234096   0.642450894163886   0.877339120962006   1.0
H8   H   0.375608622681362   0.963266308897666   0.192177037680203   1.0
H9   H   0.072393752023473   0.599021369716532   0.720695755135750   1.0
H10   H   0.095210960223270   0.125431433100772   0.263972534291433   1.0
H11   H   0.868410555392614   0.907958847527645   0.964572768543960   1.0
C12   C   0.068275646443048   0.876275757764084   0.980512559378056   1.0




# HOIP entry ID:                    0505
# Khazana ID:                       2355
# Organic cation source:            T.D.Huan et al., Phys. Rev. B 93,094105(2016)
# Label:                            Formamidinium Tin Fluoride
# Material class:                   Hybrid organic-inorganic perovskite ( MC_ino )
# Geometry class:                   Bulk crystalline materials ( GC_cry )
# Organic cation chemical formula:  HC(NH2)2
# Number of atom types:             5
# Total number of atoms:            12
# Atom types:                       C H N  Sn F
# Number of each atom:              1 5 2  1 3
# Bandgap, HSE06 (eV):              4.6596
# Bandgap, GGA (eV):                3.5213
# Kpoint for VBM:                   0.5, 0.5, 0.5
# Kpoint for CBM:                   0.5, 0.5, 0.5
# Dielectric constant, electronic:  3.1281
# Dielectric constant, ionic:       7.3388
# Dielectric constant, total:       10.4668
# Refractive index:                 1.7686
# Atomization energy (eV/atom):     -5.0048
# Relative energy1 (eV/atom):       -0.6457
# Relative energy2 (eV/atom):       0.1548
# Volume of the unit cell (A^3):    106.94
# Density (g/cm^3):                 3.4281
# Tool:                             VASP
# Pseudopotential:                  PAW
# Note:                             ENCUT=400eV, k-spacing_relax=0.20/Angstrom, k-spacing_bandgap=0.15/Angstrom
# Created by:                       C.Kim, T.D.Huan, S.Krishnan, R. Ramprasad