data_1
_audit_creation_method   'Generated by vasp2cif'
_cell_length_a    4.73690280451
_cell_length_b    5.17390720953
_cell_length_c    4.98014450762
_cell_angle_alpha    104.520766762
_cell_angle_beta    101.806245975
_cell_angle_gamma    73.1167994372

_symmetry_space_group_name_H-M    'P 1'
loop_
_atom_site_label
_atom_site_type_symbol
_atom_site_fract_x
_atom_site_fract_y
_atom_site_fract_z
_atom_site_occupancy
Sn1   Sn   0.378077223896078   0.468202794580577   0.392266482199332   1.0
F2   F   0.521886857511710   0.901109398173652   0.229454477803401   1.0
F3   F   0.561081550658301   0.275614589547729   0.764828724337114   1.0
F4   F   0.974847457676375   0.363652089633391   0.411825341094342   1.0
N5   N   0.912220223264129   0.638221258683359   0.968456843898295   1.0
N6   N   0.185739920211923   0.907728639443697   0.688467007609496   1.0
H7   H   0.220338068442729   0.851342635248407   0.875860378132671   1.0
H8   H   0.964149858549945   0.003601884885143   0.652837739533268   1.0
H9   H   0.808689760818382   0.479173361007767   0.926644256264915   1.0
H10   H   0.304028310854498   0.049424806670643   0.703086221304751   1.0
H11   H   0.862076689116137   0.052608542204737   0.176343940857827   1.0
C12   C   0.793204078999835   0.861849999920778   0.107938586964586   1.0




# HOIP entry ID:                    0506
# Khazana ID:                       2356
# Organic cation source:            T.D.Huan et al., Phys. Rev. B 93,094105(2016)
# Label:                            Formamidinium Tin Fluoride
# Material class:                   Hybrid organic-inorganic perovskite ( MC_ino )
# Geometry class:                   Bulk crystalline materials ( GC_cry )
# Organic cation chemical formula:  HC(NH2)2
# Number of atom types:             5
# Total number of atoms:            12
# Atom types:                       C H N  Sn F
# Number of each atom:              1 5 2  1 3
# Bandgap, HSE06 (eV):              3.8529
# Bandgap, GGA (eV):                2.6688
# Kpoint for VBM:                   0.5, 0.5, 0.5
# Kpoint for CBM:                   0.5, 0.5, 0.5
# Dielectric constant, electronic:  3.1572
# Dielectric constant, ionic:       4.6248
# Dielectric constant, total:       7.782
# Refractive index:                 1.7769
# Atomization energy (eV/atom):     -4.8409
# Relative energy1 (eV/atom):       -0.4818
# Relative energy2 (eV/atom):       0.3187
# Volume of the unit cell (A^3):    111.91
# Density (g/cm^3):                 3.2759
# Tool:                             VASP
# Pseudopotential:                  PAW
# Note:                             ENCUT=400eV, k-spacing_relax=0.20/Angstrom, k-spacing_bandgap=0.15/Angstrom
# Created by:                       C.Kim, T.D.Huan, S.Krishnan, R. Ramprasad