data_1
_audit_creation_method   'Generated by vasp2cif'
_cell_length_a    5.51108026028
_cell_length_b    5.51098833982
_cell_length_c    5.53751724682
_cell_angle_alpha    90.6522810787
_cell_angle_beta    89.4099769067
_cell_angle_gamma    89.1817410539

_symmetry_space_group_name_H-M    'P 1'
loop_
_atom_site_label
_atom_site_type_symbol
_atom_site_fract_x
_atom_site_fract_y
_atom_site_fract_z
_atom_site_occupancy
C1   C   0.206731757939110   0.434118573396297   0.487182154086703   1.0
C2   C   0.617232893760360   0.374434827323206   0.318133518467498   1.0
C3   C   0.563976362021947   0.531180218525691   0.732491777726509   1.0
C4   C   0.456753896245452   0.787310481336895   0.386125050881588   1.0
H5   H   0.638820132070805   0.856749774537924   0.404723060898931   1.0
H6   H   0.402573147151656   0.779745606609218   0.198946374275394   1.0
H7   H   0.132605293758417   0.457471837036479   0.308168479076471   1.0
H8   H   0.506901750590558   0.310118958298205   0.169879772147112   1.0
H9   H   0.458560558532589   0.658069585287251   0.843746162929094   1.0
H10   H   0.751166834176985   0.586586916035756   0.720616523092581   1.0
H11   H   0.766051995217929   0.482484966685512   0.250756294284812   1.0
H12   H   0.327646979455381   0.893815710026153   0.493514825146050   1.0
H13   H   0.548628926969023   0.347638348376073   0.799036606553564   1.0
H14   H   0.217539206686318   0.244650903857803   0.535550632011528   1.0
H15   H   0.685824485975573   0.223091138269417   0.422422936038231   1.0
H16   H   0.102475745610541   0.536940683237347   0.621391659733042   1.0
F17   F   0.352295566001345   0.047941941479969   0.910293320120878   1.0
F18   F   0.032716923358535   0.641255823558396   0.000808278955397   1.0
F19   F   0.940682337156467   0.963685551469496   0.595007031030484   1.0
N20   N   0.460086933279847   0.532774850101610   0.482053612257289   1.0
Sn21   Sn   0.975758274041105   0.018683304551267   0.969801930285811   1.0




# HOIP entry ID:                    0507
# Khazana ID:                       2357
# Organic cation source:            B.Saparov et al., Chem. Rev. 116, 4558 (2016)
# Label:                            Tetramethylammonium Tin Fluoride
# Material class:                   Hybrid organic-inorganic perovskite ( MC_ino )
# Geometry class:                   Bulk crystalline materials ( GC_cry )
# Organic cation chemical formula:  (CH3)4N
# Number of atom types:             5
# Total number of atoms:            21
# Atom types:                       C H N  Sn F
# Number of each atom:              4 12 1  1 3
# Bandgap, HSE06 (eV):              5.6831
# Bandgap, GGA (eV):                4.4999
# Kpoint for VBM:                   0.5, 0.5, 0.5
# Kpoint for CBM:                   0.5, 0.5, 0
# Dielectric constant, electronic:  2.7059
# Dielectric constant, ionic:       1.5316
# Dielectric constant, total:       4.2375
# Refractive index:                 1.645
# Atomization energy (eV/atom):     -4.7995
# Relative energy1 (eV/atom):       -0.3284
# Relative energy2 (eV/atom):       0.0909
# Volume of the unit cell (A^3):    168.15
# Density (g/cm^3):                 2.4674
# Tool:                             VASP
# Pseudopotential:                  PAW
# Note:                             ENCUT=400eV, k-spacing_relax=0.20/Angstrom, k-spacing_bandgap=0.15/Angstrom
# Created by:                       C.Kim, T.D.Huan, S.Krishnan, R. Ramprasad