data_1
_audit_creation_method   'Generated by vasp2cif'
_cell_length_a    6.35604717185
_cell_length_b    4.88655142983
_cell_length_c    4.48536287375
_cell_angle_alpha    90.1534392841
_cell_angle_beta    44.9991862936
_cell_angle_gamma    102.687430513

_symmetry_space_group_name_H-M    'P 1'
loop_
_atom_site_label
_atom_site_type_symbol
_atom_site_fract_x
_atom_site_fract_y
_atom_site_fract_z
_atom_site_occupancy
F1   F   0.592425646981326   0.955835954836793   0.423283048477877   1.0
F2   F   0.085056068907612   0.946606841297395   0.430984051541749   1.0
F3   F   0.970572323523349   0.608406209437149   0.045620176253657   1.0
H4   H   0.467055595070157   0.683811733395217   0.230036903703422   1.0
H5   H   0.469531289322290   0.682611277643055   0.862000455065662   1.0
H6   H   0.809313766623106   0.472605493888473   0.896801985326803   1.0
H7   H   0.566261235076908   0.191427166487870   0.947770199150476   1.0
H8   H   0.815053910380698   0.475090202836618   0.516124338683056   1.0
Sn9   Sn   0.118126848348361   0.083435345263503   0.897644617999966   1.0
N10   N   0.425464620054541   0.551523156084201   0.089040630812519   1.0
N11   N   0.671618695711572   0.409796618829788   0.845013592984870   1.0




# HOIP entry ID:                    0508
# Khazana ID:                       2358
# Organic cation source:            B.Saparov et al., Chem. Rev. 116, 4558 (2016)
# Label:                            Hydrazinium Tin Fluoride
# Material class:                   Hybrid organic-inorganic perovskite ( MC_ino )
# Geometry class:                   Bulk crystalline materials ( GC_cry )
# Organic cation chemical formula:  NH2NH3
# Number of atom types:             4
# Total number of atoms:            11
# Atom types:                        H N  Sn F
# Number of each atom:               5 2  1 3
# Bandgap, HSE06 (eV):              5.0784
# Bandgap, GGA (eV):                4.0593
# Kpoint for VBM:                   0, 0.5, 0.5
# Kpoint for CBM:                   -0.4167, 0, 0.0667
# Dielectric constant, electronic:  3.1946
# Dielectric constant, ionic:       12.6178
# Dielectric constant, total:       15.8125
# Refractive index:                 1.7874
# Atomization energy (eV/atom):     -4.609
# Relative energy1 (eV/atom):       -0.2002
# Relative energy2 (eV/atom):       0.673
# Volume of the unit cell (A^3):    93.72
# Density (g/cm^3):                 3.6989
# Tool:                             VASP
# Pseudopotential:                  PAW
# Note:                             ENCUT=400eV, k-spacing_relax=0.20/Angstrom, k-spacing_bandgap=0.15/Angstrom
# Created by:                       C.Kim, T.D.Huan, S.Krishnan, R. Ramprasad