data_1
_audit_creation_method   'Generated by vasp2cif'
_cell_length_a    3.50712744159
_cell_length_b    5.0336652279
_cell_length_c    6.33512350773
_cell_angle_alpha    74.3239737983
_cell_angle_beta    113.66480012
_cell_angle_gamma    112.464301106

_symmetry_space_group_name_H-M    'P 1'
loop_
_atom_site_label
_atom_site_type_symbol
_atom_site_fract_x
_atom_site_fract_y
_atom_site_fract_z
_atom_site_occupancy
F1   F   0.134492598894958   0.924629341640191   0.580570955162102   1.0
F2   F   0.535656024480041   0.989651738895311   0.101490838171799   1.0
F3   F   0.702469877111248   0.588091642034513   0.900720059733160   1.0
H4   H   0.444601645432407   0.514918080272444   0.578978789429804   1.0
H5   H   0.360862093224632   0.759459756705148   0.351189906963647   1.0
H6   H   0.682329321935796   0.449327284584022   0.315567994872936   1.0
H7   H   0.188282018147497   0.182594174580537   0.307728769054144   1.0
H8   H   0.198006951228472   0.476769871797636   0.101833406415594   1.0
Sn9   Sn   0.904479250682186   0.049282771890816   0.818460858723448   1.0
N10   N   0.246526506050991   0.544230238395066   0.409850128271948   1.0
N11   N   0.340903712811624   0.401085099204245   0.273068293201376   1.0




# HOIP entry ID:                    0509
# Khazana ID:                       2359
# Organic cation source:            B.Saparov et al., Chem. Rev. 116, 4558 (2016)
# Label:                            Hydrazinium Tin Fluoride
# Material class:                   Hybrid organic-inorganic perovskite ( MC_ino )
# Geometry class:                   Bulk crystalline materials ( GC_cry )
# Organic cation chemical formula:  NH2NH3
# Number of atom types:             4
# Total number of atoms:            11
# Atom types:                        H N  Sn F
# Number of each atom:               5 2  1 3
# Bandgap, HSE06 (eV):              5.0092
# Bandgap, GGA (eV):                3.8322
# Kpoint for VBM:                   0.5, 0.5, 0
# Kpoint for CBM:                   0, 0.5, 0.5
# Dielectric constant, electronic:  3.1194
# Dielectric constant, ionic:       12.7707
# Dielectric constant, total:       15.8901
# Refractive index:                 1.7662
# Atomization energy (eV/atom):     -4.5996
# Relative energy1 (eV/atom):       -0.1908
# Relative energy2 (eV/atom):       0.6824
# Volume of the unit cell (A^3):    93.75
# Density (g/cm^3):                 3.6977
# Tool:                             VASP
# Pseudopotential:                  PAW
# Note:                             ENCUT=400eV, k-spacing_relax=0.20/Angstrom, k-spacing_bandgap=0.15/Angstrom
# Created by:                       C.Kim, T.D.Huan, S.Krishnan, R. Ramprasad