data_1
_audit_creation_method   'Generated by vasp2cif'
_cell_length_a    4.93539302231
_cell_length_b    5.25679500884
_cell_length_c    3.98720741071
_cell_angle_alpha    76.1132674532
_cell_angle_beta    67.5493524677
_cell_angle_gamma    86.355491523

_symmetry_space_group_name_H-M    'P 1'
loop_
_atom_site_label
_atom_site_type_symbol
_atom_site_fract_x
_atom_site_fract_y
_atom_site_fract_z
_atom_site_occupancy
F1   F   0.569760765263723   0.154601280738944   0.729768214236202   1.0
F2   F   0.138629902105258   0.905943522037383   0.543912181468691   1.0
F3   F   0.939464196612299   0.334677111268931   0.987770288675314   1.0
H4   H   0.589220027308535   0.490050347748927   0.793051412817690   1.0
H5   H   0.341674968329677   0.723735352059045   0.827085262488310   1.0
H6   H   0.140198944116946   0.338558975031496   0.247204353221633   1.0
H7   H   0.403602114165452   0.328819023033056   0.431651665805653   1.0
H8   H   0.162198582436730   0.565714215942656   0.473883583814334   1.0
Sn9   Sn   0.785485620470631   0.930744809775803   0.080781789577735   1.0
N10   N   0.473769153174075   0.617251777803666   0.950487747549232   1.0
N11   N   0.281855726016658   0.448633584560149   0.298653500345289   1.0




# HOIP entry ID:                    0510
# Khazana ID:                       2360
# Organic cation source:            B.Saparov et al., Chem. Rev. 116, 4558 (2016)
# Label:                            Hydrazinium Tin Fluoride
# Material class:                   Hybrid organic-inorganic perovskite ( MC_ino )
# Geometry class:                   Bulk crystalline materials ( GC_cry )
# Organic cation chemical formula:  NH2NH3
# Number of atom types:             4
# Total number of atoms:            11
# Atom types:                        H N  Sn F
# Number of each atom:               5 2  1 3
# Bandgap, HSE06 (eV):              4.9251
# Bandgap, GGA (eV):                3.7824
# Kpoint for VBM:                   0.125, 0.25, 0.5
# Kpoint for CBM:                   0.5, 0, 0.0455
# Dielectric constant, electronic:  3.1687
# Dielectric constant, ionic:       6.1203
# Dielectric constant, total:       9.289
# Refractive index:                 1.7801
# Atomization energy (eV/atom):     -4.6
# Relative energy1 (eV/atom):       -0.1912
# Relative energy2 (eV/atom):       0.682
# Volume of the unit cell (A^3):    92.77
# Density (g/cm^3):                 3.7368
# Tool:                             VASP
# Pseudopotential:                  PAW
# Note:                             ENCUT=400eV, k-spacing_relax=0.20/Angstrom, k-spacing_bandgap=0.15/Angstrom
# Created by:                       C.Kim, T.D.Huan, S.Krishnan, R. Ramprasad