data_1
_audit_creation_method   'Generated by vasp2cif'
_cell_length_a    5.96958231877
_cell_length_b    3.51268952846
_cell_length_c    4.86455583216
_cell_angle_alpha    106.225923667
_cell_angle_beta    102.807854192
_cell_angle_gamma    77.0154497539

_symmetry_space_group_name_H-M    'P 1'
loop_
_atom_site_label
_atom_site_type_symbol
_atom_site_fract_x
_atom_site_fract_y
_atom_site_fract_z
_atom_site_occupancy
F1   F   0.399769708915983   0.345311555425859   0.935833396568384   1.0
F2   F   0.068547820492398   0.815069533290597   0.610242683286728   1.0
F3   F   0.868792197924343   0.621157485704323   0.014560888081178   1.0
H4   H   0.417096843246078   0.545187647046696   0.563056536650009   1.0
H5   H   0.608710952142410   0.821815674209404   0.737939715840326   1.0
H6   H   0.787340987006196   0.164379925883537   0.547741639464220   1.0
H7   H   0.662687384866480   0.241130180319878   0.212258403505345   1.0
H8   H   0.862575243607331   0.510324944329092   0.435099512369170   1.0
Sn9   Sn   0.171349895408170   0.938220571858579   0.083617718765765   1.0
N10   N   0.537706532402169   0.688316705398741   0.531586606006911   1.0
N11   N   0.723792433988457   0.372425776533220   0.425072899462052   1.0




# HOIP entry ID:                    0511
# Khazana ID:                       2361
# Organic cation source:            B.Saparov et al., Chem. Rev. 116, 4558 (2016)
# Label:                            Hydrazinium Tin Fluoride
# Material class:                   Hybrid organic-inorganic perovskite ( MC_ino )
# Geometry class:                   Bulk crystalline materials ( GC_cry )
# Organic cation chemical formula:  NH2NH3
# Number of atom types:             4
# Total number of atoms:            11
# Atom types:                        H N  Sn F
# Number of each atom:               5 2  1 3
# Bandgap, HSE06 (eV):              4.9716
# Bandgap, GGA (eV):                3.7979
# Kpoint for VBM:                   0.2368, 0.5, 0.2368
# Kpoint for CBM:                   0.5, 0, 0.5
# Dielectric constant, electronic:  3.1681
# Dielectric constant, ionic:       43.0846
# Dielectric constant, total:       46.2528
# Refractive index:                 1.7799
# Atomization energy (eV/atom):     -4.5894
# Relative energy1 (eV/atom):       -0.1806
# Relative energy2 (eV/atom):       0.6926
# Volume of the unit cell (A^3):    94.05
# Density (g/cm^3):                 3.6859
# Tool:                             VASP
# Pseudopotential:                  PAW
# Note:                             ENCUT=400eV, k-spacing_relax=0.20/Angstrom, k-spacing_bandgap=0.15/Angstrom
# Created by:                       C.Kim, T.D.Huan, S.Krishnan, R. Ramprasad