data_1
_audit_creation_method   'Generated by vasp2cif'
_cell_length_a    6.3594496977
_cell_length_b    4.08037338335
_cell_length_c    3.5734532764
_cell_angle_alpha    87.4452256033
_cell_angle_beta    91.1264050802
_cell_angle_gamma    79.4314546752

_symmetry_space_group_name_H-M    'P 1'
loop_
_atom_site_label
_atom_site_type_symbol
_atom_site_fract_x
_atom_site_fract_y
_atom_site_fract_z
_atom_site_occupancy
F1   F   0.575372467913319   0.022900650718910   0.158249931589189   1.0
F2   F   0.171489237403151   0.935817469674099   0.082299517937948   1.0
F3   F   0.884155332259105   0.498601408866513   0.110028054793666   1.0
H4   H   0.508234181658516   0.670341953710789   0.409642059483780   1.0
H5   H   0.426350011994430   0.710832672881367   0.841657845006637   1.0
H6   H   0.167308571223821   0.575672024047122   0.423815950219591   1.0
H7   H   0.331357352001902   0.212032729850499   0.369021410303596   1.0
H8   H   0.235510663292857   0.284752629501852   0.791714657846533   1.0
Sn9   Sn   0.831200942214878   0.073925877254254   0.778496752913114   1.0
N10   N   0.475421830743464   0.539117301409881   0.645755252392654   1.0
N11   N   0.286839409294529   0.398405282084667   0.554668567513339   1.0




# HOIP entry ID:                    0512
# Khazana ID:                       2362
# Organic cation source:            B.Saparov et al., Chem. Rev. 116, 4558 (2016)
# Label:                            Hydrazinium Tin Fluoride
# Material class:                   Hybrid organic-inorganic perovskite ( MC_ino )
# Geometry class:                   Bulk crystalline materials ( GC_cry )
# Organic cation chemical formula:  NH2NH3
# Number of atom types:             4
# Total number of atoms:            11
# Atom types:                        H N  Sn F
# Number of each atom:               5 2  1 3
# Bandgap, HSE06 (eV):              3.9676
# Bandgap, GGA (eV):                2.8795
# Kpoint for VBM:                   0, 0, 0.5
# Kpoint for CBM:                   0.5, 0.5, 0
# Dielectric constant, electronic:  3.3136
# Dielectric constant, ionic:       10.4907
# Dielectric constant, total:       13.8043
# Refractive index:                 1.8203
# Atomization energy (eV/atom):     -4.5869
# Relative energy1 (eV/atom):       -0.178
# Relative energy2 (eV/atom):       0.6952
# Volume of the unit cell (A^3):    91.03
# Density (g/cm^3):                 3.8082
# Tool:                             VASP
# Pseudopotential:                  PAW
# Note:                             ENCUT=400eV, k-spacing_relax=0.20/Angstrom, k-spacing_bandgap=0.15/Angstrom
# Created by:                       C.Kim, T.D.Huan, S.Krishnan, R. Ramprasad