data_1
_audit_creation_method   'Generated by vasp2cif'
_cell_length_a    5.39394628344
_cell_length_b    3.55959747386
_cell_length_c    5.96595905182
_cell_angle_alpha    118.203865408
_cell_angle_beta    96.8095981242
_cell_angle_gamma    68.5559424251

_symmetry_space_group_name_H-M    'P 1'
loop_
_atom_site_label
_atom_site_type_symbol
_atom_site_fract_x
_atom_site_fract_y
_atom_site_fract_z
_atom_site_occupancy
F1   F   0.226501230862617   0.416810768084581   0.977338738985658   1.0
F2   F   0.974840365825372   0.359803406239699   0.369114953043145   1.0
F3   F   0.647237965676247   0.840534967108937   0.118129904576904   1.0
H4   H   0.484885222745532   0.730852017290012   0.793351297925959   1.0
H5   H   0.699533103530932   0.373971646739534   0.539244899406839   1.0
H6   H   0.156652784716819   0.822352938146757   0.497786590909492   1.0
H7   H   0.401783670822525   0.033270155405859   0.515775855117127   1.0
H8   H   0.392104984016065   0.523610989258493   0.273002393898430   1.0
Sn9   Sn   0.918008259360619   0.076066427830490   0.973842621166071   1.0
N10   N   0.505233714591860   0.494605423510315   0.605773810412060   1.0
N11   N   0.356358697851490   0.739811260385309   0.466008934558346   1.0




# HOIP entry ID:                    0513
# Khazana ID:                       2363
# Organic cation source:            B.Saparov et al., Chem. Rev. 116, 4558 (2016)
# Label:                            Hydrazinium Tin Fluoride
# Material class:                   Hybrid organic-inorganic perovskite ( MC_ino )
# Geometry class:                   Bulk crystalline materials ( GC_cry )
# Organic cation chemical formula:  NH2NH3
# Number of atom types:             4
# Total number of atoms:            11
# Atom types:                        H N  Sn F
# Number of each atom:               5 2  1 3
# Bandgap, HSE06 (eV):              4.7623
# Bandgap, GGA (eV):                3.5983
# Kpoint for VBM:                   0.5, 0.5, 0
# Kpoint for CBM:                   -0.375, 0, 0.25
# Dielectric constant, electronic:  3.1288
# Dielectric constant, ionic:       12.4027
# Dielectric constant, total:       15.5315
# Refractive index:                 1.7689
# Atomization energy (eV/atom):     -4.6022
# Relative energy1 (eV/atom):       -0.1934
# Relative energy2 (eV/atom):       0.6798
# Volume of the unit cell (A^3):    93.75
# Density (g/cm^3):                 3.6977
# Tool:                             VASP
# Pseudopotential:                  PAW
# Note:                             ENCUT=400eV, k-spacing_relax=0.20/Angstrom, k-spacing_bandgap=0.15/Angstrom
# Created by:                       C.Kim, T.D.Huan, S.Krishnan, R. Ramprasad