data_1
_audit_creation_method   'Generated by vasp2cif'
_cell_length_a    4.96931909989
_cell_length_b    3.54657257595
_cell_length_c    5.76844933229
_cell_angle_alpha    100.050638591
_cell_angle_beta    87.0398335263
_cell_angle_gamma    69.3190338851

_symmetry_space_group_name_H-M    'P 1'
loop_
_atom_site_label
_atom_site_type_symbol
_atom_site_fract_x
_atom_site_fract_y
_atom_site_fract_z
_atom_site_occupancy
F1   F   0.928033534145946   0.570149613206858   0.773768726291401   1.0
F2   F   0.608109436508357   0.310886613486133   0.088734759356925   1.0
F3   F   0.003187831542718   0.676834057931828   0.289263894151922   1.0
H4   H   0.487834303508208   0.886755915401814   0.314195492882689   1.0
H5   H   0.196956149603459   0.204626168105520   0.503288609672978   1.0
H6   H   0.783793887529697   0.040728685003614   0.524890847475639   1.0
H7   H   0.508487334249040   0.514487237906252   0.561765276185611   1.0
H8   H   0.558032386009437   0.231317196453141   0.778680715500670   1.0
Sn9   Sn   0.069069711460045   0.065487469556828   0.011655232017752   1.0
N10   N   0.401580081386186   0.990295249667497   0.488699088993911   1.0
N11   N   0.572985344056946   0.215431793280572   0.597757357470535   1.0




# HOIP entry ID:                    0514
# Khazana ID:                       2364
# Organic cation source:            B.Saparov et al., Chem. Rev. 116, 4558 (2016)
# Label:                            Hydrazinium Tin Fluoride
# Material class:                   Hybrid organic-inorganic perovskite ( MC_ino )
# Geometry class:                   Bulk crystalline materials ( GC_cry )
# Organic cation chemical formula:  NH2NH3
# Number of atom types:             4
# Total number of atoms:            11
# Atom types:                        H N  Sn F
# Number of each atom:               5 2  1 3
# Bandgap, HSE06 (eV):              4.9338
# Bandgap, GGA (eV):                3.7767
# Kpoint for VBM:                   0.2778, -0.4167, 0.375
# Kpoint for CBM:                   0.5, 0, 0.5
# Dielectric constant, electronic:  3.1419
# Dielectric constant, ionic:       18.0553
# Dielectric constant, total:       21.1972
# Refractive index:                 1.7725
# Atomization energy (eV/atom):     -4.5987
# Relative energy1 (eV/atom):       -0.1899
# Relative energy2 (eV/atom):       0.6833
# Volume of the unit cell (A^3):    92.94
# Density (g/cm^3):                 3.7299
# Tool:                             VASP
# Pseudopotential:                  PAW
# Note:                             ENCUT=400eV, k-spacing_relax=0.20/Angstrom, k-spacing_bandgap=0.15/Angstrom
# Created by:                       C.Kim, T.D.Huan, S.Krishnan, R. Ramprasad