data_1
_audit_creation_method   'Generated by vasp2cif'
_cell_length_a    5.23770108393
_cell_length_b    3.56532188467
_cell_length_c    5.32273016821
_cell_angle_alpha    82.2205940091
_cell_angle_beta    91.2455687988
_cell_angle_gamma    72.3993263038

_symmetry_space_group_name_H-M    'P 1'
loop_
_atom_site_label
_atom_site_type_symbol
_atom_site_fract_x
_atom_site_fract_y
_atom_site_fract_z
_atom_site_occupancy
F1   F   0.720963718333778   0.176988161353904   0.969609782825771   1.0
F2   F   0.974876532462304   0.476964791941043   0.359762347166026   1.0
F3   F   0.301926153863867   0.880556346256057   0.109165601620667   1.0
H4   H   0.248587903984223   0.042038724452389   0.529982999948849   1.0
H5   H   0.463229763011263   0.933835975664429   0.784129640357826   1.0
H6   H   0.794001276540705   0.987714463400202   0.487633508595692   1.0
H7   H   0.555273230867250   0.153197789494861   0.265667738078548   1.0
H8   H   0.549000554203189   0.426675386653237   0.509118441626498   1.0
Sn9   Sn   0.030420220082362   0.530798104487602   0.965446554751040   1.0
N10   N   0.443811766274948   0.903231299827191   0.597185753294049   1.0
N11   N   0.593268880376179   0.138698956469128   0.458097631734908   1.0




# HOIP entry ID:                    0515
# Khazana ID:                       2365
# Organic cation source:            B.Saparov et al., Chem. Rev. 116, 4558 (2016)
# Label:                            Hydrazinium Tin Fluoride
# Material class:                   Hybrid organic-inorganic perovskite ( MC_ino )
# Geometry class:                   Bulk crystalline materials ( GC_cry )
# Organic cation chemical formula:  NH2NH3
# Number of atom types:             4
# Total number of atoms:            11
# Atom types:                        H N  Sn F
# Number of each atom:               5 2  1 3
# Bandgap, HSE06 (eV):              4.7694
# Bandgap, GGA (eV):                3.648
# Kpoint for VBM:                   0, 0.5, 0.5
# Kpoint for CBM:                   0.375, 0, 0.25
# Dielectric constant, electronic:  3.131
# Dielectric constant, ionic:       12.7685
# Dielectric constant, total:       15.8995
# Refractive index:                 1.7695
# Atomization energy (eV/atom):     -4.6019
# Relative energy1 (eV/atom):       -0.1931
# Relative energy2 (eV/atom):       0.6801
# Volume of the unit cell (A^3):    93.67
# Density (g/cm^3):                 3.7009
# Tool:                             VASP
# Pseudopotential:                  PAW
# Note:                             ENCUT=400eV, k-spacing_relax=0.20/Angstrom, k-spacing_bandgap=0.15/Angstrom
# Created by:                       C.Kim, T.D.Huan, S.Krishnan, R. Ramprasad