data_1
_audit_creation_method   'Generated by vasp2cif'
_cell_length_a    5.13561638107
_cell_length_b    4.9171309453
_cell_length_c    3.56997147932
_cell_angle_alpha    70.18212764
_cell_angle_beta    110.586112576
_cell_angle_gamma    96.0925273139

_symmetry_space_group_name_H-M    'P 1'
loop_
_atom_site_label
_atom_site_type_symbol
_atom_site_fract_x
_atom_site_fract_y
_atom_site_fract_z
_atom_site_occupancy
Sn1   Sn   0.927832120012020   0.911728076111466   0.763499198500142   1.0
F2   F   0.596542466353050   0.914955192387652   0.101368304211682   1.0
F3   F   0.183578299807060   0.093388660247904   0.313082300887174   1.0
F4   F   0.817465087708683   0.357751509014527   0.495514910435517   1.0
N5   N   0.398837216128456   0.474703715021818   0.737617759355004   1.0
H6   H   0.207097422521038   0.479371317712939   0.513619293553987   1.0
H7   H   0.404436275994449   0.299517517231671   0.999466455798945   1.0
H8   H   0.552649930856624   0.442489965584215   0.631311450784189   1.0
H9   H   0.433121180618635   0.659704046687885   0.821050326473298   1.0




# HOIP entry ID:                    0516
# Khazana ID:                       2366
# Organic cation source:            T.D.Huan et al., Phys. Rev. B 93,094105(2016)
# Label:                            Ammonium Tin Fluoride
# Material class:                   Hybrid organic-inorganic perovskite ( MC_ino )
# Geometry class:                   Bulk crystalline materials ( GC_cry )
# Organic cation chemical formula:  NH4
# Number of atom types:             4
# Total number of atoms:            9
# Atom types:                        H N  Sn F
# Number of each atom:               4 1  1 3
# Bandgap, HSE06 (eV):              4.9542
# Bandgap, GGA (eV):                3.8221
# Kpoint for VBM:                   0.5, 0.5, 0.5
# Kpoint for CBM:                   0.5, 0, 0.0385
# Dielectric constant, electronic:  3.1461
# Dielectric constant, ionic:       28.0409
# Dielectric constant, total:       31.1871
# Refractive index:                 1.7737
# Atomization energy (eV/atom):     -4.5173
# Relative energy1 (eV/atom):       -0.3679
# Relative energy2 (eV/atom):       0.6993
# Volume of the unit cell (A^3):    79.39
# Density (g/cm^3):                 4.0525
# Tool:                             VASP
# Pseudopotential:                  PAW
# Note:                             ENCUT=400eV, k-spacing_relax=0.20/Angstrom, k-spacing_bandgap=0.15/Angstrom
# Created by:                       C.Kim, T.D.Huan, S.Krishnan, R. Ramprasad