data_1
_audit_creation_method   'Generated by vasp2cif'
_cell_length_a    4.43939889328
_cell_length_b    4.37196572501
_cell_length_c    4.65882808632
_cell_angle_alpha    76.9375734321
_cell_angle_beta    79.508045452
_cell_angle_gamma    76.570277134

_symmetry_space_group_name_H-M    'P 1'
loop_
_atom_site_label
_atom_site_type_symbol
_atom_site_fract_x
_atom_site_fract_y
_atom_site_fract_z
_atom_site_occupancy
Sn1   Sn   0.996082306729477   0.946680225087555   0.114363489281359   1.0
F2   F   0.110704315032393   0.049092343230015   0.632500715710641   1.0
F3   F   0.480357033328183   0.081449629326293   0.067780313367472   1.0
F4   F   0.874192449867401   0.480340249541897   0.971321928126606   1.0
N5   N   0.506090683547995   0.485040126153791   0.536556799328686   1.0
H6   H   0.360933840391084   0.700542869452796   0.567446178700109   1.0
H7   H   0.375590138997872   0.307664613776950   0.593158542252816   1.0
H8   H   0.605151953950369   0.500662648456483   0.317408123160895   1.0
H9   H   0.675217278155174   0.436847294974278   0.674413910071372   1.0




# HOIP entry ID:                    0517
# Khazana ID:                       2367
# Organic cation source:            T.D.Huan et al., Phys. Rev. B 93,094105(2016)
# Label:                            Ammonium Tin Fluoride
# Material class:                   Hybrid organic-inorganic perovskite ( MC_ino )
# Geometry class:                   Bulk crystalline materials ( GC_cry )
# Organic cation chemical formula:  NH4
# Number of atom types:             4
# Total number of atoms:            9
# Atom types:                        H N  Sn F
# Number of each atom:               4 1  1 3
# Bandgap, HSE06 (eV):              4.9081
# Bandgap, GGA (eV):                3.8068
# Kpoint for VBM:                   0.5, 0, 0.5
# Kpoint for CBM:                   0.5, 0.5, 0.5
# Dielectric constant, electronic:  3.0527
# Dielectric constant, ionic:       10.18
# Dielectric constant, total:       13.2326
# Refractive index:                 1.7472
# Atomization energy (eV/atom):     -4.5375
# Relative energy1 (eV/atom):       -0.3881
# Relative energy2 (eV/atom):       0.6791
# Volume of the unit cell (A^3):    84.87
# Density (g/cm^3):                 3.7908
# Tool:                             VASP
# Pseudopotential:                  PAW
# Note:                             ENCUT=400eV, k-spacing_relax=0.20/Angstrom, k-spacing_bandgap=0.15/Angstrom
# Created by:                       C.Kim, T.D.Huan, S.Krishnan, R. Ramprasad