data_1
_audit_creation_method   'Generated by vasp2cif'
_cell_length_a    3.56866196326
_cell_length_b    4.91589653995
_cell_length_c    5.13927095264
_cell_angle_alpha    83.9072649178
_cell_angle_beta    69.4156111459
_cell_angle_gamma    70.1862967855

_symmetry_space_group_name_H-M    'P 1'
loop_
_atom_site_label
_atom_site_type_symbol
_atom_site_fract_x
_atom_site_fract_y
_atom_site_fract_z
_atom_site_occupancy
Sn1   Sn   0.804062802531291   0.944144622495386   0.068911572796189   1.0
F2   F   0.142806232214610   0.947691907910716   0.399913049978885   1.0
F3   F   0.354553894189792   0.126013088257835   0.813084258994223   1.0
F4   F   0.537032839377872   0.390330767262967   0.179192557670930   1.0
N5   N   0.779015275099439   0.507385328409804   0.597801596534183   1.0
H6   H   0.553897023368876   0.512341406382497   0.788984439326391   1.0
H7   H   0.040875200356844   0.332542955898170   0.593320613079477   1.0
H8   H   0.674185086123934   0.474346437745489   0.443578656787430   1.0
H9   H   0.862021646737333   0.692623485637107   0.563533254832251   1.0




# HOIP entry ID:                    0518
# Khazana ID:                       2368
# Organic cation source:            T.D.Huan et al., Phys. Rev. B 93,094105(2016)
# Label:                            Ammonium Tin Fluoride
# Material class:                   Hybrid organic-inorganic perovskite ( MC_ino )
# Geometry class:                   Bulk crystalline materials ( GC_cry )
# Organic cation chemical formula:  NH4
# Number of atom types:             4
# Total number of atoms:            9
# Atom types:                        H N  Sn F
# Number of each atom:               4 1  1 3
# Bandgap, HSE06 (eV):              4.9138
# Bandgap, GGA (eV):                3.8184
# Kpoint for VBM:                   0.5, 0.3, 0.2778
# Kpoint for CBM:                   0, -0.05, 0.4444
# Dielectric constant, electronic:  3.1466
# Dielectric constant, ionic:       27.2003
# Dielectric constant, total:       30.3468
# Refractive index:                 1.7739
# Atomization energy (eV/atom):     -4.5176
# Relative energy1 (eV/atom):       -0.3682
# Relative energy2 (eV/atom):       0.699
# Volume of the unit cell (A^3):    79.4
# Density (g/cm^3):                 4.052
# Tool:                             VASP
# Pseudopotential:                  PAW
# Note:                             ENCUT=400eV, k-spacing_relax=0.20/Angstrom, k-spacing_bandgap=0.15/Angstrom
# Created by:                       C.Kim, T.D.Huan, S.Krishnan, R. Ramprasad