data_1
_audit_creation_method   'Generated by vasp2cif'
_cell_length_a    5.16916527098
_cell_length_b    5.41878451386
_cell_length_c    5.28676395973
_cell_angle_alpha    83.6835598756
_cell_angle_beta    83.3080984617
_cell_angle_gamma    98.0147412846

_symmetry_space_group_name_H-M    'P 1'
loop_
_atom_site_label
_atom_site_type_symbol
_atom_site_fract_x
_atom_site_fract_y
_atom_site_fract_z
_atom_site_occupancy
C1   C   0.670779572717350   0.327588655332470   0.608479852509525   1.0
C2   C   0.417310853877410   0.675471449075843   0.671453401780163   1.0
C3   C   0.349056509671712   0.425214178921188   0.317017410696401   1.0
H4   H   0.825414728206859   0.418548677338308   0.704351378722635   1.0
H5   H   0.558971701219598   0.734863197939660   0.796344517465094   1.0
H6   H   0.456430928688263   0.343477230511574   0.167128749566672   1.0
H7   H   0.253053206616492   0.575696108336821   0.239265360997955   1.0
H8   H   0.353835320927850   0.833760585341068   0.564663118605125   1.0
H9   H   0.690146808928752   0.649698355771420   0.365651876193688   1.0
H10   H   0.206631540761954   0.280719283303398   0.437224786284276   1.0
H11   H   0.524136121836619   0.207466997671382   0.749303898181637   1.0
H12   H   0.247751579925797   0.554379775457043   0.782296902419652   1.0
H13   H   0.746779833326954   0.218873539804065   0.464755532193379   1.0
F14   F   0.583184551897077   0.977061879484332   0.112903206818409   1.0
F15   F   0.904955885706663   0.601970315204142   0.035757074737191   1.0
F16   F   0.980773999698542   0.906953062970878   0.424181116567368   1.0
N17   N   0.542719306853797   0.529110225792763   0.481255202631353   1.0
Sn18   Sn   0.996167549138384   0.996206481743641   0.020826613629381   1.0




# HOIP entry ID:                    0519
# Khazana ID:                       2369
# Organic cation source:            A. Mancini et al., J. Solid State Chem. 240, 55 (2016)
# Label:                            Trimethylammonium Tin Fluoride
# Material class:                   Hybrid organic-inorganic perovskite ( MC_ino )
# Geometry class:                   Bulk crystalline materials ( GC_cry )
# Organic cation chemical formula:  (CH3)3NH
# Number of atom types:             5
# Total number of atoms:            18
# Atom types:                       C H N  Sn F
# Number of each atom:              3 10 1  1 3
# Bandgap, HSE06 (eV):              5.6496
# Bandgap, GGA (eV):                4.4859
# Kpoint for VBM:                   0.5, 0.5, 0.5
# Kpoint for CBM:                   -0.4375, 0.4286, 0.3125
# Dielectric constant, electronic:  2.795
# Dielectric constant, ionic:       1.7297
# Dielectric constant, total:       4.5246
# Refractive index:                 1.6718
# Atomization energy (eV/atom):     -4.7668
# Relative energy1 (eV/atom):       -0.3614
# Relative energy2 (eV/atom):       0.1722
# Volume of the unit cell (A^3):    144.43
# Density (g/cm^3):                 2.7114
# Tool:                             VASP
# Pseudopotential:                  PAW
# Note:                             ENCUT=400eV, k-spacing_relax=0.20/Angstrom, k-spacing_bandgap=0.15/Angstrom
# Created by:                       C.Kim, T.D.Huan, S.Krishnan, R. Ramprasad