data_1
_audit_creation_method   'Generated by vasp2cif'
_cell_length_a    4.90362445389
_cell_length_b    5.14549682884
_cell_length_c    5.94972786149
_cell_angle_alpha    89.4493528209
_cell_angle_beta    92.0496434055
_cell_angle_gamma    105.302349746

_symmetry_space_group_name_H-M    'P 1'
loop_
_atom_site_label
_atom_site_type_symbol
_atom_site_fract_x
_atom_site_fract_y
_atom_site_fract_z
_atom_site_occupancy
C1   C   0.621703829261897   0.269972687261316   0.506235375296512   1.0
C2   C   0.363930709877991   0.569097409832445   0.674504837178795   1.0
C3   C   0.405802715492875   0.560628514018639   0.267044767559213   1.0
H4   H   0.708305473018477   0.253046444059692   0.674166477872475   1.0
H5   H   0.466904356047330   0.543687317641009   0.833325985490234   1.0
H6   H   0.517662932464923   0.486549766065870   0.139178301608446   1.0
H7   H   0.408681649772532   0.769436879954213   0.240819429695897   1.0
H8   H   0.325881369178482   0.766767709784659   0.661008891243732   1.0
H9   H   0.737187997143081   0.687916869771151   0.491880629600345   1.0
H10   H   0.189133275606139   0.439240996372902   0.273185298498952   1.0
H11   H   0.426605149111381   0.113746528296737   0.474634242585310   1.0
H12   H   0.166593859396855   0.414042014197101   0.653036839200873   1.0
H13   H   0.771381476583215   0.264222426898982   0.378158466115515   1.0
F14   F   0.419948627959414   0.061408748337612   0.993966150161420   1.0
F15   F   0.930557867762253   0.558815144045596   0.968522049817636   1.0
F16   F   0.995018104834195   0.935425123852035   0.350812410750834   1.0
N17   N   0.549963413894574   0.535158026257051   0.489182745328698   1.0
Sn18   Sn   0.972887192594406   0.980017393352945   0.987827101995215   1.0




# HOIP entry ID:                    0520
# Khazana ID:                       2370
# Organic cation source:            A. Mancini et al., J. Solid State Chem. 240, 55 (2016)
# Label:                            Trimethylammonium Tin Fluoride
# Material class:                   Hybrid organic-inorganic perovskite ( MC_ino )
# Geometry class:                   Bulk crystalline materials ( GC_cry )
# Organic cation chemical formula:  (CH3)3NH
# Number of atom types:             5
# Total number of atoms:            18
# Atom types:                       C H N  Sn F
# Number of each atom:              3 10 1  1 3
# Bandgap, HSE06 (eV):              4.4192
# Bandgap, GGA (eV):                3.3117
# Kpoint for VBM:                   0.5, 0.5, 0.5
# Kpoint for CBM:                   0.5, 0.5, 0.5
# Dielectric constant, electronic:  2.8597
# Dielectric constant, ionic:       1.9817
# Dielectric constant, total:       4.8414
# Refractive index:                 1.6911
# Atomization energy (eV/atom):     -4.7562
# Relative energy1 (eV/atom):       -0.3509
# Relative energy2 (eV/atom):       0.1827
# Volume of the unit cell (A^3):    144.71
# Density (g/cm^3):                 2.7061
# Tool:                             VASP
# Pseudopotential:                  PAW
# Note:                             ENCUT=400eV, k-spacing_relax=0.20/Angstrom, k-spacing_bandgap=0.15/Angstrom
# Created by:                       C.Kim, T.D.Huan, S.Krishnan, R. Ramprasad