data_1
_audit_creation_method   'Generated by vasp2cif'
_cell_length_a    5.41212346063
_cell_length_b    5.50608758853
_cell_length_c    5.03140417328
_cell_angle_alpha    95.5188627978
_cell_angle_beta    95.1805151943
_cell_angle_gamma    100.575629025

_symmetry_space_group_name_H-M    'P 1'
loop_
_atom_site_label
_atom_site_type_symbol
_atom_site_fract_x
_atom_site_fract_y
_atom_site_fract_z
_atom_site_occupancy
C1   C   0.394454649278472   0.373649881326116   0.720160258847756   1.0
C2   C   0.371028869119847   0.650879653852471   0.371426437693167   1.0
C3   C   0.681929539275032   0.363951256551033   0.374456886499523   1.0
H4   H   0.297135621361925   0.493912053903436   0.836984439956765   1.0
H5   H   0.291120843607203   0.771203139931742   0.509149815978994   1.0
H6   H   0.813084854370629   0.299249704117265   0.514322121635402   1.0
H7   H   0.780698149067007   0.471805098722605   0.233231574317145   1.0
H8   H   0.479156041141025   0.756151433409080   0.234578520772160   1.0
H9   H   0.672901496559618   0.660334784589288   0.650121109561852   1.0
H10   H   0.547015183560312   0.205617740076917   0.269746232325644   1.0
H11   H   0.257485025181666   0.227811539298116   0.596466927503670   1.0
H12   H   0.220287279379690   0.510432247704721   0.260832252659526   1.0
H13   H   0.523491461018509   0.290762157233303   0.842775487197365   1.0
F14   F   0.932923836445134   0.920252036299232   0.427210411162001   1.0
F15   F   0.959499618061635   0.609043962841852   0.912961783012001   1.0
F16   F   0.614495540873847   0.937244286635476   0.913677024655669   1.0
N17   N   0.541708538878027   0.524228297598150   0.535003881934955   1.0
Sn18   Sn   0.005703452820399   0.992040725909149   0.025154834286347   1.0




# HOIP entry ID:                    0521
# Khazana ID:                       2371
# Organic cation source:            A. Mancini et al., J. Solid State Chem. 240, 55 (2016)
# Label:                            Trimethylammonium Tin Fluoride
# Material class:                   Hybrid organic-inorganic perovskite ( MC_ino )
# Geometry class:                   Bulk crystalline materials ( GC_cry )
# Organic cation chemical formula:  (CH3)3NH
# Number of atom types:             5
# Total number of atoms:            18
# Atom types:                       C H N  Sn F
# Number of each atom:              3 10 1  1 3
# Bandgap, HSE06 (eV):              5.6004
# Bandgap, GGA (eV):                4.4526
# Kpoint for VBM:                   0.5, 0.5, 0.5
# Kpoint for CBM:                   -0.3571, 0.3571, 0.5
# Dielectric constant, electronic:  2.7712
# Dielectric constant, ionic:       1.8988
# Dielectric constant, total:       4.67
# Refractive index:                 1.6647
# Atomization energy (eV/atom):     -4.7676
# Relative energy1 (eV/atom):       -0.3623
# Relative energy2 (eV/atom):       0.1714
# Volume of the unit cell (A^3):    145.81
# Density (g/cm^3):                 2.6857
# Tool:                             VASP
# Pseudopotential:                  PAW
# Note:                             ENCUT=400eV, k-spacing_relax=0.20/Angstrom, k-spacing_bandgap=0.15/Angstrom
# Created by:                       C.Kim, T.D.Huan, S.Krishnan, R. Ramprasad