data_1
_audit_creation_method   'Generated by vasp2cif'
_cell_length_a    4.81789328834
_cell_length_b    5.98827768106
_cell_length_c    5.22464014209
_cell_angle_alpha    93.3498059572
_cell_angle_beta    103.453266477
_cell_angle_gamma    93.1820793331

_symmetry_space_group_name_H-M    'P 1'
loop_
_atom_site_label
_atom_site_type_symbol
_atom_site_fract_x
_atom_site_fract_y
_atom_site_fract_z
_atom_site_occupancy
C1   C   0.636636160288319   0.624649001595024   0.334457471066109   1.0
C2   C   0.378919901296605   0.768495192280014   0.657345419283153   1.0
C3   C   0.499951808355249   0.379524405832797   0.654134564976729   1.0
H4   H   0.658659190674726   0.474738585215292   0.216288381901229   1.0
H5   H   0.312117940487916   0.905558757374578   0.537307224758912   1.0
H6   H   0.552582885888313   0.240787578908218   0.535837885429103   1.0
H7   H   0.325093553839707   0.330812712381316   0.741960428442773   1.0
H8   H   0.221235209146009   0.722383500091453   0.766489317453050   1.0
H9   H   0.225917974775257   0.529423488662367   0.348445262105912   1.0
H10   H   0.689439941047169   0.443003126133768   0.803577665342353   1.0
H11   H   0.565677997045078   0.760575631830740   0.213856749396513   1.0
H12   H   0.584251210501399   0.813103604975296   0.789927066653000   1.0
H13   H   0.833358250961254   0.678694567292055   0.478682919334950   1.0
F14   F   0.948720824359690   0.081482025775045   0.691960331846353   1.0
F15   F   0.024444039280318   0.748479772048931   0.074433836717290   1.0
F16   F   0.566816488412563   0.095025018350867   0.092592708590210   1.0
N17   N   0.416153202259778   0.569710256322246   0.485475781971246   1.0
Sn18   Sn   0.028833421380753   0.104072774929989   0.104876984731085   1.0




# HOIP entry ID:                    0522
# Khazana ID:                       2372
# Organic cation source:            A. Mancini et al., J. Solid State Chem. 240, 55 (2016)
# Label:                            Trimethylammonium Tin Fluoride
# Material class:                   Hybrid organic-inorganic perovskite ( MC_ino )
# Geometry class:                   Bulk crystalline materials ( GC_cry )
# Organic cation chemical formula:  (CH3)3NH
# Number of atom types:             5
# Total number of atoms:            18
# Atom types:                       C H N  Sn F
# Number of each atom:              3 10 1  1 3
# Bandgap, HSE06 (eV):              4.678
# Bandgap, GGA (eV):                3.5825
# Kpoint for VBM:                   0.5, 0.5, 0.5
# Kpoint for CBM:                   0.375, 0.5, 0.25
# Dielectric constant, electronic:  2.8607
# Dielectric constant, ionic:       3.2393
# Dielectric constant, total:       6.0999
# Refractive index:                 1.6914
# Atomization energy (eV/atom):     -4.7525
# Relative energy1 (eV/atom):       -0.3471
# Relative energy2 (eV/atom):       0.1865
# Volume of the unit cell (A^3):    145.98
# Density (g/cm^3):                 2.6826
# Tool:                             VASP
# Pseudopotential:                  PAW
# Note:                             ENCUT=400eV, k-spacing_relax=0.20/Angstrom, k-spacing_bandgap=0.15/Angstrom
# Created by:                       C.Kim, T.D.Huan, S.Krishnan, R. Ramprasad