data_1
_audit_creation_method   'Generated by vasp2cif'
_cell_length_a    4.87386099005
_cell_length_b    5.34005587876
_cell_length_c    5.71146963419
_cell_angle_alpha    94.6439393912
_cell_angle_beta    80.6999564352
_cell_angle_gamma    85.4696450995

_symmetry_space_group_name_H-M    'P 1'
loop_
_atom_site_label
_atom_site_type_symbol
_atom_site_fract_x
_atom_site_fract_y
_atom_site_fract_z
_atom_site_occupancy
C1   C   0.347868511565011   0.492610857288255   0.319544138729405   1.0
C2   C   0.629075268606165   0.829108109202338   0.435714122090282   1.0
C3   C   0.586798842338304   0.463344938963068   0.668160103438964   1.0
H4   H   0.242137673004841   0.623017637756114   0.219964715359062   1.0
H5   H   0.810614508687557   0.727161943148268   0.322302717443414   1.0
H6   H   0.450059155009534   0.321617974181635   0.723452998501543   1.0
H7   H   0.637126458210673   0.576208475428878   0.819365964411254   1.0
H8   H   0.517464287465685   0.951405786066090   0.333359050823312   1.0
H9   H   0.267811333653874   0.724877912421341   0.632792555898867   1.0
H10   H   0.776676840131898   0.374136424111079   0.556921934403398   1.0
H11   H   0.531059838623037   0.396988698233031   0.203756492882093   1.0
H12   H   0.687609655220015   0.932058109602252   0.587404392817277   1.0
H13   H   0.213357995088032   0.355077719372673   0.392046833476748   1.0
F14   F   0.453782922117412   0.013139531077478   0.970612047725730   1.0
F15   F   0.024742446171622   0.689390104568552   0.925750129282072   1.0
F16   F   0.086335221793043   0.080385151531601   0.623754734629024   1.0
N17   N   0.442376597470862   0.635574578140357   0.523086301649244   1.0
Sn18   Sn   0.007462444842503   0.087686048906917   0.996650766438364   1.0




# HOIP entry ID:                    0523
# Khazana ID:                       2373
# Organic cation source:            A. Mancini et al., J. Solid State Chem. 240, 55 (2016)
# Label:                            Trimethylammonium Tin Fluoride
# Material class:                   Hybrid organic-inorganic perovskite ( MC_ino )
# Geometry class:                   Bulk crystalline materials ( GC_cry )
# Organic cation chemical formula:  (CH3)3NH
# Number of atom types:             5
# Total number of atoms:            18
# Atom types:                       C H N  Sn F
# Number of each atom:              3 10 1  1 3
# Bandgap, HSE06 (eV):              5.3815
# Bandgap, GGA (eV):                4.254
# Kpoint for VBM:                   0.5, 0.5, 0.5
# Kpoint for CBM:                   0.4375, -0.2857, 0.4286
# Dielectric constant, electronic:  2.8018
# Dielectric constant, ionic:       2.1483
# Dielectric constant, total:       4.95
# Refractive index:                 1.6738
# Atomization energy (eV/atom):     -4.7678
# Relative energy1 (eV/atom):       -0.3625
# Relative energy2 (eV/atom):       0.1711
# Volume of the unit cell (A^3):    145.57
# Density (g/cm^3):                 2.6902
# Tool:                             VASP
# Pseudopotential:                  PAW
# Note:                             ENCUT=400eV, k-spacing_relax=0.20/Angstrom, k-spacing_bandgap=0.15/Angstrom
# Created by:                       C.Kim, T.D.Huan, S.Krishnan, R. Ramprasad