data_1
_audit_creation_method   'Generated by vasp2cif'
_cell_length_a    5.44357171683
_cell_length_b    4.12326764891
_cell_length_c    6.73074303205
_cell_angle_alpha    90.9379711239
_cell_angle_beta    83.3958650133
_cell_angle_gamma    81.3195552806

_symmetry_space_group_name_H-M    'P 1'
loop_
_atom_site_label
_atom_site_type_symbol
_atom_site_fract_x
_atom_site_fract_y
_atom_site_fract_z
_atom_site_occupancy
C1   C   0.309404478966776   0.554050268868863   0.437392094975039   1.0
C2   C   0.684557567840677   0.793613148057275   0.494257961485296   1.0
C3   C   0.504302020997415   0.473303350875227   0.763014595626913   1.0
H4   H   0.228855328311795   0.762063437545649   0.356530352756174   1.0
H5   H   0.637200891884945   0.984052193902485   0.390557408690093   1.0
H6   H   0.352383498223126   0.335486296367442   0.799754246398059   1.0
H7   H   0.522465264867336   0.628805084774896   0.890622360762684   1.0
H8   H   0.790199457182538   0.879720329772702   0.605973935598961   1.0
H9   H   0.325050934492069   0.898058490505356   0.653927496138706   1.0
H10   H   0.680042747023307   0.315728027650394   0.719120500953686   1.0
H11   H   0.438162122193297   0.385981909198577   0.334013012089777   1.0
H12   H   0.791088311379909   0.575487819355544   0.415370019810602   1.0
H13   H   0.165065114653693   0.430717836453638   0.513403004662884   1.0
F14   F   0.577742129326857   0.028171702743279   0.060783158261437   1.0
F15   F   0.999066922254954   0.197664061349194   0.237992915154585   1.0
F16   F   0.042226159068761   0.118731627629018   0.770604794659306   1.0
N17   N   0.447493881608459   0.695068526080114   0.592433591610892   1.0
Sn18   Sn   0.961343169724046   0.824365888870403   0.031168550365386   1.0




# HOIP entry ID:                    0524
# Khazana ID:                       2374
# Organic cation source:            A. Mancini et al., J. Solid State Chem. 240, 55 (2016)
# Label:                            Trimethylammonium Tin Fluoride
# Material class:                   Hybrid organic-inorganic perovskite ( MC_ino )
# Geometry class:                   Bulk crystalline materials ( GC_cry )
# Organic cation chemical formula:  (CH3)3NH
# Number of atom types:             5
# Total number of atoms:            18
# Atom types:                       C H N  Sn F
# Number of each atom:              3 10 1  1 3
# Bandgap, HSE06 (eV):              5.4337
# Bandgap, GGA (eV):                4.2383
# Kpoint for VBM:                   0, 0.5, 0
# Kpoint for CBM:                   0.0714, 0, 0.1667
# Dielectric constant, electronic:  2.728
# Dielectric constant, ionic:       2.2621
# Dielectric constant, total:       4.9901
# Refractive index:                 1.6517
# Atomization energy (eV/atom):     -4.7464
# Relative energy1 (eV/atom):       -0.341
# Relative energy2 (eV/atom):       0.1926
# Volume of the unit cell (A^3):    148.26
# Density (g/cm^3):                 2.6413
# Tool:                             VASP
# Pseudopotential:                  PAW
# Note:                             ENCUT=400eV, k-spacing_relax=0.20/Angstrom, k-spacing_bandgap=0.15/Angstrom
# Created by:                       C.Kim, T.D.Huan, S.Krishnan, R. Ramprasad