data_1
_audit_creation_method   'Generated by vasp2cif'
_cell_length_a    4.55857488535
_cell_length_b    5.37391466773
_cell_length_c    5.60947656506
_cell_angle_alpha    92.2171610767
_cell_angle_beta    89.9492337415
_cell_angle_gamma    89.9037584765

_symmetry_space_group_name_H-M    'P 1'
loop_
_atom_site_label
_atom_site_type_symbol
_atom_site_fract_x
_atom_site_fract_y
_atom_site_fract_z
_atom_site_occupancy
F1   F   0.013484988035863   0.013218276942475   0.705679209218317   1.0
F2   F   0.514393708364516   0.075584268176989   0.012064016134218   1.0
F3   F   0.016879380427476   0.427404644855677   0.068925771970676   1.0
H4   H   0.328080901683194   0.880812482000991   0.610209805479997   1.0
H5   H   0.716061826159226   0.626204734838396   0.259410357708731   1.0
H6   H   0.697117950019603   0.884889273146470   0.609945750450628   1.0
H7   H   0.303407741157954   0.267714466426575   0.496712014131148   1.0
H8   H   0.720301304861962   0.538019856100902   0.839326108401913   1.0
H9   H   0.329168338836062   0.541827403408405   0.853984914976955   1.0
H10   H   0.325506889159456   0.634593006769265   0.250622342779145   1.0
H11   H   0.693991600423011   0.250284199703224   0.490776935977046   1.0
C12   C   0.518706967427001   0.545608639799148   0.738173849093556   1.0
C13   C   0.516116923024121   0.604806078149522   0.359855704457537   1.0
C14   C   0.505948108737080   0.373287289950547   0.512262199605246   1.0
Sn15   Sn   0.014309732245344   0.043140855137345   0.089612614918273   1.0
N16   N   0.514563639438180   0.774654524594155   0.583848404696624   1.0




# HOIP entry ID:                    0526
# Khazana ID:                       2376
# Organic cation source:            B. Zhou et al., Angew. Chem. Int. Ed. 50, 11441 (2011)
# Label:                            Azetidinium Tin Fluoride
# Material class:                   Hybrid organic-inorganic perovskite ( MC_ino )
# Geometry class:                   Bulk crystalline materials ( GC_cry )
# Organic cation chemical formula:  C3H6N2
# Number of atom types:             5
# Total number of atoms:            16
# Atom types:                       C H N  Sn F
# Number of each atom:              3 8 1  1 3
# Bandgap, HSE06 (eV):              4.7119
# Bandgap, GGA (eV):                3.6343
# Kpoint for VBM:                   0.5, 0.5, 0.5
# Kpoint for CBM:                   0.0556, 0.0714, 0.5
# Dielectric constant, electronic:  2.9176
# Dielectric constant, ionic:       6.2758
# Dielectric constant, total:       9.1934
# Refractive index:                 1.7081
# Atomization energy (eV/atom):     -4.8805
# Relative energy1 (eV/atom):       -0.3783
# Relative energy2 (eV/atom):       0.222
# Volume of the unit cell (A^3):    137.31
# Density (g/cm^3):                 2.8276
# Tool:                             VASP
# Pseudopotential:                  PAW
# Note:                             ENCUT=400eV, k-spacing_relax=0.20/Angstrom, k-spacing_bandgap=0.15/Angstrom
# Created by:                       C.Kim, T.D.Huan, S.Krishnan, R. Ramprasad