data_1
_audit_creation_method   'Generated by vasp2cif'
_cell_length_a    5.69049487382
_cell_length_b    5.27926518656
_cell_length_c    4.53370233174
_cell_angle_alpha    89.8231296209
_cell_angle_beta    87.268730441
_cell_angle_gamma    92.5828495609

_symmetry_space_group_name_H-M    'P 1'
loop_
_atom_site_label
_atom_site_type_symbol
_atom_site_fract_x
_atom_site_fract_y
_atom_site_fract_z
_atom_site_occupancy
F1   F   0.611654695359178   0.072968182962640   0.980274410454236   1.0
F2   F   0.911882926560494   0.131413043976707   0.460254649809947   1.0
F3   F   0.979044053993761   0.493249749438256   0.960082085709047   1.0
H4   H   0.546210912590233   0.956888382017944   0.330003711260474   1.0
H5   H   0.735583951888025   0.575318965311340   0.685231378195603   1.0
H6   H   0.488071013799207   0.916004685657583   0.693480905978184   1.0
H7   H   0.406370955266119   0.286650382132912   0.295438989897171   1.0
H8   H   0.120513699743263   0.697392823711120   0.555352014818943   1.0
H9   H   0.241277524523845   0.691139121343653   0.185665188166979   1.0
H10   H   0.752183110382958   0.589218389603083   0.291043162647377   1.0
H11   H   0.360224129176714   0.332308288260848   0.683757979763328   1.0
C12   C   0.275187147138610   0.663305862730077   0.416038281464537   1.0
C13   C   0.636898866902030   0.590296944235860   0.488334144327460   1.0
C14   C   0.408769638534380   0.423177930050244   0.472883416213207   1.0
Sn15   Sn   0.990204600767832   0.098465210140226   0.958926718983683   1.0
N16   N   0.490872773373354   0.827502038427625   0.491162962309744   1.0




# HOIP entry ID:                    0527
# Khazana ID:                       2377
# Organic cation source:            B. Zhou et al., Angew. Chem. Int. Ed. 50, 11441 (2011)
# Label:                            Azetidinium Tin Fluoride
# Material class:                   Hybrid organic-inorganic perovskite ( MC_ino )
# Geometry class:                   Bulk crystalline materials ( GC_cry )
# Organic cation chemical formula:  C3H6N2
# Number of atom types:             5
# Total number of atoms:            16
# Atom types:                       C H N  Sn F
# Number of each atom:              3 8 1  1 3
# Bandgap, HSE06 (eV):              4.762
# Bandgap, GGA (eV):                3.6842
# Kpoint for VBM:                   0.5, 0.5, 0.5
# Kpoint for CBM:                   0.5, 0.5, 0
# Dielectric constant, electronic:  2.9428
# Dielectric constant, ionic:       5.3049
# Dielectric constant, total:       8.2477
# Refractive index:                 1.7155
# Atomization energy (eV/atom):     -4.8779
# Relative energy1 (eV/atom):       -0.3757
# Relative energy2 (eV/atom):       0.2246
# Volume of the unit cell (A^3):    135.91
# Density (g/cm^3):                 2.8567
# Tool:                             VASP
# Pseudopotential:                  PAW
# Note:                             ENCUT=400eV, k-spacing_relax=0.20/Angstrom, k-spacing_bandgap=0.15/Angstrom
# Created by:                       C.Kim, T.D.Huan, S.Krishnan, R. Ramprasad