data_1
_audit_creation_method   'Generated by vasp2cif'
_cell_length_a    4.74410399372
_cell_length_b    4.53126684931
_cell_length_c    6.22697818082
_cell_angle_alpha    85.6230834608
_cell_angle_beta    84.1309615919
_cell_angle_gamma    97.3159759721

_symmetry_space_group_name_H-M    'P 1'
loop_
_atom_site_label
_atom_site_type_symbol
_atom_site_fract_x
_atom_site_fract_y
_atom_site_fract_z
_atom_site_occupancy
F1   F   0.560576822714426   0.006043393550856   0.044419777882287   1.0
F2   F   0.033068295534205   0.028820645037737   0.296895662205578   1.0
F3   F   0.000825090360400   0.555794259522649   0.028185235976768   1.0
H4   H   0.270568129618013   0.353182361779650   0.307651376766457   1.0
H5   H   0.857553781786652   0.506796780342447   0.359507710076503   1.0
H6   H   0.467493606764179   0.691584362629355   0.225481523253891   1.0
H7   H   0.560810813270743   0.470978383927625   0.817053047917919   1.0
H8   H   0.260942041784708   0.875972556459474   0.535895765899316   1.0
H9   H   0.117751239161925   0.507473771969850   0.641439799387852   1.0
H10   H   0.633916178911396   0.184905703502537   0.486912441075214   1.0
H11   H   0.729007611165720   0.801169203478331   0.659342557269927   1.0
C12   C   0.306655012478085   0.649959889110168   0.564103605699548   1.0
C13   C   0.661129855727975   0.426057160049911   0.460155997447361   1.0
C14   C   0.583788977799365   0.595539129035372   0.658729361247983   1.0
Sn15   Sn   0.027675669003268   0.049711524713655   0.960138324986159   1.0
N16   N   0.409486873918885   0.525990874890303   0.352657812907329   1.0




# HOIP entry ID:                    0528
# Khazana ID:                       2378
# Organic cation source:            B. Zhou et al., Angew. Chem. Int. Ed. 50, 11441 (2011)
# Label:                            Azetidinium Tin Fluoride
# Material class:                   Hybrid organic-inorganic perovskite ( MC_ino )
# Geometry class:                   Bulk crystalline materials ( GC_cry )
# Organic cation chemical formula:  C3H6N2
# Number of atom types:             5
# Total number of atoms:            16
# Atom types:                       C H N  Sn F
# Number of each atom:              3 8 1  1 3
# Bandgap, HSE06 (eV):              5.2067
# Bandgap, GGA (eV):                4.0931
# Kpoint for VBM:                   0.5, 0.5, 0.5
# Kpoint for CBM:                   0.5, 0.0556, 0.5
# Dielectric constant, electronic:  3.0122
# Dielectric constant, ionic:       4.9073
# Dielectric constant, total:       7.9195
# Refractive index:                 1.7356
# Atomization energy (eV/atom):     -4.8778
# Relative energy1 (eV/atom):       -0.3756
# Relative energy2 (eV/atom):       0.2247
# Volume of the unit cell (A^3):    131.53
# Density (g/cm^3):                 2.9519
# Tool:                             VASP
# Pseudopotential:                  PAW
# Note:                             ENCUT=400eV, k-spacing_relax=0.20/Angstrom, k-spacing_bandgap=0.15/Angstrom
# Created by:                       C.Kim, T.D.Huan, S.Krishnan, R. Ramprasad