data_1
_audit_creation_method   'Generated by vasp2cif'
_cell_length_a    4.87860779449
_cell_length_b    5.65397964426
_cell_length_c    4.85359321776
_cell_angle_alpha    83.1766836531
_cell_angle_beta    86.2203318645
_cell_angle_gamma    99.310380911

_symmetry_space_group_name_H-M    'P 1'
loop_
_atom_site_label
_atom_site_type_symbol
_atom_site_fract_x
_atom_site_fract_y
_atom_site_fract_z
_atom_site_occupancy
F1   F   0.974399089715746   0.077296528125949   0.492878414359318   1.0
F2   F   0.573011027742957   0.076368512841462   0.051977118365315   1.0
F3   F   0.093697283812148   0.423255169966296   0.979158865254576   1.0
H4   H   0.313870655425980   0.779506184633888   0.780496604373091   1.0
H5   H   0.376899782775595   0.711485064542480   0.208567741318824   1.0
H6   H   0.576300337097088   0.926547830490129   0.549480435511086   1.0
H7   H   0.474087957044325   0.249602334155114   0.534705541294812   1.0
H8   H   0.862188932290266   0.668367825653995   0.709096553693549   1.0
H9   H   0.577736432775524   0.482428162754225   0.920990088910415   1.0
H10   H   0.139297229603635   0.519622892124083   0.468856483409731   1.0
H11   H   0.733833165543039   0.449983702097875   0.310467423220992   1.0
C12   C   0.649561403949598   0.577819915037232   0.717223175859111   1.0
C13   C   0.352769440602792   0.604025094384525   0.409449465411683   1.0
C14   C   0.567220833313954   0.437182465728753   0.473818291609248   1.0
Sn15   Sn   0.010587331277783   0.050608774808111   0.045663286823597   1.0
N16   N   0.461209097029545   0.760929542655944   0.628970510584580   1.0




# HOIP entry ID:                    0529
# Khazana ID:                       2379
# Organic cation source:            B. Zhou et al., Angew. Chem. Int. Ed. 50, 11441 (2011)
# Label:                            Azetidinium Tin Fluoride
# Material class:                   Hybrid organic-inorganic perovskite ( MC_ino )
# Geometry class:                   Bulk crystalline materials ( GC_cry )
# Organic cation chemical formula:  C3H6N2
# Number of atom types:             5
# Total number of atoms:            16
# Atom types:                       C H N  Sn F
# Number of each atom:              3 8 1  1 3
# Bandgap, HSE06 (eV):              4.5487
# Bandgap, GGA (eV):                3.4994
# Kpoint for VBM:                   0.5, 0.5, 0.5
# Kpoint for CBM:                   -0.4375, 0.4286, 0.4375
# Dielectric constant, electronic:  3.0505
# Dielectric constant, ionic:       3.3429
# Dielectric constant, total:       6.3934
# Refractive index:                 1.7466
# Atomization energy (eV/atom):     -4.8664
# Relative energy1 (eV/atom):       -0.3643
# Relative energy2 (eV/atom):       0.2361
# Volume of the unit cell (A^3):    130.68
# Density (g/cm^3):                 2.9711
# Tool:                             VASP
# Pseudopotential:                  PAW
# Note:                             ENCUT=400eV, k-spacing_relax=0.20/Angstrom, k-spacing_bandgap=0.15/Angstrom
# Created by:                       C.Kim, T.D.Huan, S.Krishnan, R. Ramprasad