data_1
_audit_creation_method   'Generated by vasp2cif'
_cell_length_a    7.26259659185
_cell_length_b    4.51969154206
_cell_length_c    4.42122267566
_cell_angle_alpha    107.657912568
_cell_angle_beta    79.2810077737
_cell_angle_gamma    89.150235354

_symmetry_space_group_name_H-M    'P 1'
loop_
_atom_site_label
_atom_site_type_symbol
_atom_site_fract_x
_atom_site_fract_y
_atom_site_fract_z
_atom_site_occupancy
F1   F   0.802095319670066   0.701260810317017   0.209187277707109   1.0
F2   F   0.013743092309426   0.104259673856248   0.905397014930664   1.0
F3   F   0.213032981585933   0.648627370793129   0.094236064990810   1.0
H4   H   0.676464917999517   0.026310064113467   0.956569364038103   1.0
H5   H   0.283646888106084   0.263678947995736   0.029640165929244   1.0
H6   H   0.349981988957211   0.888667386256067   0.960719774938752   1.0
H7   H   0.477123204159497   0.846588346245909   0.400781592961295   1.0
H8   H   0.318249326889756   0.180990031313556   0.492235187760613   1.0
H9   H   0.577464734129975   0.524262015612877   0.659700375052104   1.0
H10   H   0.737249113189478   0.189665759451032   0.460340112737654   1.0
H11   H   0.571623727675089   0.409096085154893   0.164338318817720   1.0
C12   C   0.436380802175805   0.082866949267434   0.557740091138605   1.0
C13   C   0.580864418742479   0.210392945146502   0.952093134240094   1.0
C14   C   0.605689012726323   0.278546481550826   0.628641801705328   1.0
Sn15   Sn   0.002420599051938   0.591249227661379   0.778820149647018   1.0
N16   N   0.389479872631405   0.090037905263991   0.908609573404824   1.0




# HOIP entry ID:                    0530
# Khazana ID:                       2380
# Organic cation source:            B. Zhou et al., Angew. Chem. Int. Ed. 50, 11441 (2011)
# Label:                            Azetidinium Tin Fluoride
# Material class:                   Hybrid organic-inorganic perovskite ( MC_ino )
# Geometry class:                   Bulk crystalline materials ( GC_cry )
# Organic cation chemical formula:  C3H6N2
# Number of atom types:             5
# Total number of atoms:            16
# Atom types:                       C H N  Sn F
# Number of each atom:              3 8 1  1 3
# Bandgap, HSE06 (eV):              4.5636
# Bandgap, GGA (eV):                3.4669
# Kpoint for VBM:                   0.5, 0.5, 0.5
# Kpoint for CBM:                   -0.3, 0.2778, 0
# Dielectric constant, electronic:  2.8996
# Dielectric constant, ionic:       4.6888
# Dielectric constant, total:       7.5884
# Refractive index:                 1.7028
# Atomization energy (eV/atom):     -4.8568
# Relative energy1 (eV/atom):       -0.3546
# Relative energy2 (eV/atom):       0.2457
# Volume of the unit cell (A^3):    135.48
# Density (g/cm^3):                 2.8658
# Tool:                             VASP
# Pseudopotential:                  PAW
# Note:                             ENCUT=400eV, k-spacing_relax=0.20/Angstrom, k-spacing_bandgap=0.15/Angstrom
# Created by:                       C.Kim, T.D.Huan, S.Krishnan, R. Ramprasad