data_1
_audit_creation_method   'Generated by vasp2cif'
_cell_length_a    7.21054790169
_cell_length_b    4.5389033652
_cell_length_c    4.41854768404
_cell_angle_alpha    107.116896359
_cell_angle_beta    80.0337642838
_cell_angle_gamma    88.5187268328

_symmetry_space_group_name_H-M    'P 1'
loop_
_atom_site_label
_atom_site_type_symbol
_atom_site_fract_x
_atom_site_fract_y
_atom_site_fract_z
_atom_site_occupancy
F1   F   0.175138969785901   0.622977234155154   0.840602461657731   1.0
F2   F   0.963302915159150   0.221323729415879   0.142423207508080   1.0
F3   F   0.762571094836776   0.681702815716531   0.949489728585228   1.0
H4   H   0.416398135706890   0.906021126670722   0.865770625650287   1.0
H5   H   0.621728403396472   0.442752409210266   0.076446532793989   1.0
H6   H   0.698092484565486   0.074655327672180   0.010450672732846   1.0
H7   H   0.658936646225333   0.148215349781213   0.544497522203758   1.0
H8   H   0.496173076546138   0.478111190862369   0.631421342438260   1.0
H9   H   0.238027583324454   0.139117789822907   0.562231910951404   1.0
H10   H   0.399266228534326   0.804762161201164   0.380022438860688   1.0
H11   H   0.299825308717503   0.281614205518994   0.054924586694900   1.0
C12   C   0.539454035033161   0.244581785525444   0.475745930414393   1.0
C13   C   0.398974286997777   0.107609071016763   0.073489317005874   1.0
C14   C   0.371369920600998   0.047382665809108   0.401019013403688   1.0
Sn15   Sn   0.973982340141344   0.730252699825591   0.267243662059381   1.0
N16   N   0.587198570428233   0.239720437795666   0.126511047039609   1.0




# HOIP entry ID:                    0531
# Khazana ID:                       2381
# Organic cation source:            B. Zhou et al., Angew. Chem. Int. Ed. 50, 11441 (2011)
# Label:                            Azetidinium Tin Fluoride
# Material class:                   Hybrid organic-inorganic perovskite ( MC_ino )
# Geometry class:                   Bulk crystalline materials ( GC_cry )
# Organic cation chemical formula:  C3H6N2
# Number of atom types:             5
# Total number of atoms:            16
# Atom types:                       C H N  Sn F
# Number of each atom:              3 8 1  1 3
# Bandgap, HSE06 (eV):              4.5322
# Bandgap, GGA (eV):                3.4328
# Kpoint for VBM:                   0.5, 0.5, 0.5
# Kpoint for CBM:                   -0.3, 0.2778, 0
# Dielectric constant, electronic:  2.8956
# Dielectric constant, ionic:       5.0891
# Dielectric constant, total:       7.9847
# Refractive index:                 1.7016
# Atomization energy (eV/atom):     -4.857
# Relative energy1 (eV/atom):       -0.3548
# Relative energy2 (eV/atom):       0.2455
# Volume of the unit cell (A^3):    135.67
# Density (g/cm^3):                 2.8618
# Tool:                             VASP
# Pseudopotential:                  PAW
# Note:                             ENCUT=400eV, k-spacing_relax=0.20/Angstrom, k-spacing_bandgap=0.15/Angstrom
# Created by:                       C.Kim, T.D.Huan, S.Krishnan, R. Ramprasad