data_1
_audit_creation_method   'Generated by vasp2cif'
_cell_length_a    6.56603879556
_cell_length_b    4.87019946227
_cell_length_c    4.43293612625
_cell_angle_alpha    81.3368366386
_cell_angle_beta    94.9071039912
_cell_angle_gamma    81.5164742206

_symmetry_space_group_name_H-M    'P 1'
loop_
_atom_site_label
_atom_site_type_symbol
_atom_site_fract_x
_atom_site_fract_y
_atom_site_fract_z
_atom_site_occupancy
F1   F   0.780048279717732   0.663839573816254   0.148330341801831   1.0
F2   F   0.038072928522972   0.229809030621112   0.907944916578323   1.0
F3   F   0.211256500192434   0.647840942944825   0.202567859927605   1.0
H4   H   0.712607922812552   0.175556447510147   0.115166216435554   1.0
H5   H   0.291851426245593   0.055965008062579   0.998851341107788   1.0
H6   H   0.524505098505344   0.831471436208403   0.040521859688006   1.0
H7   H   0.532256696238434   0.905801987544095   0.515771390383115   1.0
H8   H   0.292613801891910   0.147609960844008   0.474523563616991   1.0
H9   H   0.486918956281030   0.530463761453476   0.526563355413266   1.0
H10   H   0.726456553366326   0.299061174440560   0.561046647684364   1.0
H11   H   0.473782960449547   0.417225612647364   0.081172146405173   1.0
C12   C   0.448347881473389   0.086127775643469   0.593725431331841   1.0
C13   C   0.565237483516796   0.259567107456597   0.980924345662665   1.0
C14   C   0.572275491018203   0.327101466666974   0.633614018809858   1.0
Sn15   Sn   0.993603833664736   0.686468112964029   0.813503228616383   1.0
N16   N   0.440854186102975   0.023070601176137   0.939033336537257   1.0




# HOIP entry ID:                    0532
# Khazana ID:                       2382
# Organic cation source:            B. Zhou et al., Angew. Chem. Int. Ed. 50, 11441 (2011)
# Label:                            Azetidinium Tin Fluoride
# Material class:                   Hybrid organic-inorganic perovskite ( MC_ino )
# Geometry class:                   Bulk crystalline materials ( GC_cry )
# Organic cation chemical formula:  C3H6N2
# Number of atom types:             5
# Total number of atoms:            16
# Atom types:                       C H N  Sn F
# Number of each atom:              3 8 1  1 3
# Bandgap, HSE06 (eV):              4.5469
# Bandgap, GGA (eV):                3.4281
# Kpoint for VBM:                   0.5, 0.5, 0.5
# Kpoint for CBM:                   0, 0.5, 0
# Dielectric constant, electronic:  2.8036
# Dielectric constant, ionic:       4.6596
# Dielectric constant, total:       7.4633
# Refractive index:                 1.6744
# Atomization energy (eV/atom):     -4.8609
# Relative energy1 (eV/atom):       -0.3587
# Relative energy2 (eV/atom):       0.2416
# Volume of the unit cell (A^3):    137.76
# Density (g/cm^3):                 2.8184
# Tool:                             VASP
# Pseudopotential:                  PAW
# Note:                             ENCUT=400eV, k-spacing_relax=0.20/Angstrom, k-spacing_bandgap=0.15/Angstrom
# Created by:                       C.Kim, T.D.Huan, S.Krishnan, R. Ramprasad