data_1
_audit_creation_method   'Generated by vasp2cif'
_cell_length_a    5.43534268815
_cell_length_b    3.69930701645
_cell_length_c    7.04998193535
_cell_angle_alpha    78.4083263172
_cell_angle_beta    93.7178117481
_cell_angle_gamma    111.037052517

_symmetry_space_group_name_H-M    'P 1'
loop_
_atom_site_label
_atom_site_type_symbol
_atom_site_fract_x
_atom_site_fract_y
_atom_site_fract_z
_atom_site_occupancy
F1   F   0.741420917805447   0.852399141019636   0.842238027620229   1.0
F2   F   0.480084579143056   0.072336081485087   0.119732818958105   1.0
F3   F   0.892075567400179   0.771769376412826   0.248889888735314   1.0
H4   H   0.963060782534927   0.073182998458758   0.497889528091895   1.0
H5   H   0.316350450861415   0.212951961226378   0.288934778627141   1.0
H6   H   0.428185413358391   0.678765302716929   0.304980955922005   1.0
H7   H   0.590323425998806   0.054402173601126   0.526811407825403   1.0
H8   H   0.702335737153835   0.542374648659798   0.569367702937195   1.0
H9   H   0.358951610106846   0.359854660528277   0.811314070265282   1.0
H10   H   0.234719156315715   0.873722106710993   0.769851551176890   1.0
H11   H   0.090767479741013   0.561842432843405   0.538568804452333   1.0
C12   C   0.530969016578186   0.289494259066633   0.552235033994624   1.0
C13   C   0.136650551971461   0.302460974957101   0.535281622950112   1.0
C14   C   0.308214740464391   0.181513599265279   0.700184050921255   1.0
Sn15   Sn   0.883779772845931   0.309610431428798   0.028163920859845   1.0
N16   N   0.356460797720437   0.396799851618909   0.388065836662648   1.0




# HOIP entry ID:                    0533
# Khazana ID:                       2383
# Organic cation source:            B. Zhou et al., Angew. Chem. Int. Ed. 50, 11441 (2011)
# Label:                            Azetidinium Tin Fluoride
# Material class:                   Hybrid organic-inorganic perovskite ( MC_ino )
# Geometry class:                   Bulk crystalline materials ( GC_cry )
# Organic cation chemical formula:  C3H6N2
# Number of atom types:             5
# Total number of atoms:            16
# Atom types:                       C H N  Sn F
# Number of each atom:              3 8 1  1 3
# Bandgap, HSE06 (eV):              4.6212
# Bandgap, GGA (eV):                3.475
# Kpoint for VBM:                   0.5, 0.5, 0
# Kpoint for CBM:                   0, 0, 0
# Dielectric constant, electronic:  3.0002
# Dielectric constant, ionic:       10.5537
# Dielectric constant, total:       13.5539
# Refractive index:                 1.7321
# Atomization energy (eV/atom):     -4.8628
# Relative energy1 (eV/atom):       -0.3606
# Relative energy2 (eV/atom):       0.2398
# Volume of the unit cell (A^3):    129.6
# Density (g/cm^3):                 2.9958
# Tool:                             VASP
# Pseudopotential:                  PAW
# Note:                             ENCUT=400eV, k-spacing_relax=0.20/Angstrom, k-spacing_bandgap=0.15/Angstrom
# Created by:                       C.Kim, T.D.Huan, S.Krishnan, R. Ramprasad