data_1
_audit_creation_method   'Generated by vasp2cif'
_cell_length_a    7.01660640333
_cell_length_b    3.70704943956
_cell_length_c    5.38996172906
_cell_angle_alpha    108.826641141
_cell_angle_beta    94.5855244954
_cell_angle_gamma    78.3760539919

_symmetry_space_group_name_H-M    'P 1'
loop_
_atom_site_label
_atom_site_type_symbol
_atom_site_fract_x
_atom_site_fract_y
_atom_site_fract_z
_atom_site_occupancy
F1   F   0.159238622421959   0.771259367771947   0.784961314817785   1.0
F2   F   0.877966210416851   0.302745056866108   0.528248862046354   1.0
F3   F   0.751456759061654   0.003746942380062   0.945071818306033   1.0
H4   H   0.460064045066496   0.404611121493552   0.143949225837275   1.0
H5   H   0.703909746896180   0.646030126898374   0.462305030329468   1.0
H6   H   0.705536430479661   0.991119200764025   0.332578245274220   1.0
H7   H   0.447225770053073   0.050433407092768   0.743551395584717   1.0
H8   H   0.474599753209155   0.422761442805886   0.619004171979761   1.0
H9   H   0.221207345800799   0.227236962528238   0.280000923158255   1.0
H10   H   0.191535551125298   0.872216242534748   0.417918391107619   1.0
H11   H   0.487012674197267   0.757369930912795   0.001411161039393   1.0
C12   C   0.452794507031214   0.127260895256178   0.567923056122360   1.0
C13   C   0.459837012551041   0.708925247973390   0.181097317768796   1.0
C14   C   0.297687678907444   0.000324977967402   0.356481791554579   1.0
Sn15   Sn   0.974314141863410   0.459207515604120   0.926764492042153   1.0
N16   N   0.613823750918421   0.847971561150423   0.388322803031215   1.0




# HOIP entry ID:                    0535
# Khazana ID:                       2385
# Organic cation source:            B. Zhou et al., Angew. Chem. Int. Ed. 50, 11441 (2011)
# Label:                            Azetidinium Tin Fluoride
# Material class:                   Hybrid organic-inorganic perovskite ( MC_ino )
# Geometry class:                   Bulk crystalline materials ( GC_cry )
# Organic cation chemical formula:  C3H6N2
# Number of atom types:             5
# Total number of atoms:            16
# Atom types:                       C H N  Sn F
# Number of each atom:              3 8 1  1 3
# Bandgap, HSE06 (eV):              4.6163
# Bandgap, GGA (eV):                3.4761
# Kpoint for VBM:                   0.0263, 0.5, 0
# Kpoint for CBM:                   0, 0, 0.0625
# Dielectric constant, electronic:  2.988
# Dielectric constant, ionic:       8.7255
# Dielectric constant, total:       11.7135
# Refractive index:                 1.7286
# Atomization energy (eV/atom):     -4.864
# Relative energy1 (eV/atom):       -0.3618
# Relative energy2 (eV/atom):       0.2385
# Volume of the unit cell (A^3):    129.96
# Density (g/cm^3):                 2.9875
# Tool:                             VASP
# Pseudopotential:                  PAW
# Note:                             ENCUT=400eV, k-spacing_relax=0.20/Angstrom, k-spacing_bandgap=0.15/Angstrom
# Created by:                       C.Kim, T.D.Huan, S.Krishnan, R. Ramprasad