data_1
_audit_creation_method   'Generated by vasp2cif'
_cell_length_a    3.67851976532
_cell_length_b    4.8128033162
_cell_length_c    7.65586032365
_cell_angle_alpha    85.2243714852
_cell_angle_beta    94.5031749109
_cell_angle_gamma    102.116559845

_symmetry_space_group_name_H-M    'P 1'
loop_
_atom_site_label
_atom_site_type_symbol
_atom_site_fract_x
_atom_site_fract_y
_atom_site_fract_z
_atom_site_occupancy
F1   F   0.330342692365704   0.606383842964519   0.088296025814657   1.0
F2   F   0.996062623486203   0.013180957005240   0.892051092557942   1.0
F3   F   0.253739066923515   0.644569026423049   0.666420122576689   1.0
H4   H   0.693386353343392   0.961648347029815   0.168434212787247   1.0
H5   H   0.968531424511028   0.781127808052098   0.525543056391591   1.0
H6   H   0.526843029086102   0.730501835189656   0.447418963633538   1.0
H7   H   0.463187609140377   0.153034925509026   0.560000856311781   1.0
H8   H   0.934843019255503   0.195353427657587   0.635199098436132   1.0
H9   H   0.129309591701869   0.467259921983263   0.358440374461246   1.0
H10   H   0.662483420959028   0.421239701496219   0.272637615574098   1.0
H11   H   0.165612802568049   0.006089550002379   0.243442104343920   1.0
C12   C   0.741823986869633   0.156915944770532   0.521795163608722   1.0
C13   C   0.893957417682593   0.034818435978273   0.274422853147627   1.0
C14   C   0.866228149332294   0.318085359508714   0.347203327319832   1.0
Sn15   Sn   0.842532592902394   0.558497132935479   0.896802738297005   1.0
N16   N   0.772386219872295   0.876203783494056   0.450012394738018   1.0




# HOIP entry ID:                    0537
# Khazana ID:                       2387
# Organic cation source:            B. Zhou et al., Angew. Chem. Int. Ed. 50, 11441 (2011)
# Label:                            Azetidinium Tin Fluoride
# Material class:                   Hybrid organic-inorganic perovskite ( MC_ino )
# Geometry class:                   Bulk crystalline materials ( GC_cry )
# Organic cation chemical formula:  C3H6N2
# Number of atom types:             5
# Total number of atoms:            16
# Atom types:                       C H N  Sn F
# Number of each atom:              3 8 1  1 3
# Bandgap, HSE06 (eV):              4.4118
# Bandgap, GGA (eV):                3.2736
# Kpoint for VBM:                   0.5, 0.5, 0
# Kpoint for CBM:                   0.0455, 0.5, 0.5
# Dielectric constant, electronic:  3.0018
# Dielectric constant, ionic:       6.7904
# Dielectric constant, total:       9.7922
# Refractive index:                 1.7326
# Atomization energy (eV/atom):     -4.8451
# Relative energy1 (eV/atom):       -0.3429
# Relative energy2 (eV/atom):       0.2574
# Volume of the unit cell (A^3):    131.8
# Density (g/cm^3):                 2.9458
# Tool:                             VASP
# Pseudopotential:                  PAW
# Note:                             ENCUT=400eV, k-spacing_relax=0.20/Angstrom, k-spacing_bandgap=0.15/Angstrom
# Created by:                       C.Kim, T.D.Huan, S.Krishnan, R. Ramprasad