data_1
_audit_creation_method   'Generated by vasp2cif'
_cell_length_a    6.68325307864
_cell_length_b    4.87121099409
_cell_length_c    4.46793608901
_cell_angle_alpha    69.7039526874
_cell_angle_beta    89.347626083
_cell_angle_gamma    83.087317509

_symmetry_space_group_name_H-M    'P 1'
loop_
_atom_site_label
_atom_site_type_symbol
_atom_site_fract_x
_atom_site_fract_y
_atom_site_fract_z
_atom_site_occupancy
F1   F   0.123308441941362   0.573751050617713   0.944338545645480   1.0
F2   F   0.877884063557286   0.014021648533585   0.143710632872515   1.0
F3   F   0.692179698526603   0.665616916767354   0.877415422633643   1.0
H4   H   0.388696214313638   0.836542435220815   0.923693349970555   1.0
H5   H   0.457704097798939   0.429227977313993   0.851519284903765   1.0
H6   H   0.633660733506461   0.133756034901758   0.963200661137914   1.0
H7   H   0.596924770009464   0.085160017118460   0.481059408793745   1.0
H8   H   0.382676733249673   0.369077208281191   0.367325783487571   1.0
H9   H   0.163835255781865   0.968329302145732   0.451493857714070   1.0
H10   H   0.381552804350774   0.713282887061745   0.494523604939161   1.0
H11   H   0.192016764715075   0.138271113330293   0.866093714699871   1.0
C12   C   0.455536732071199   0.166670271266167   0.344851784265009   1.0
C13   C   0.326248627978291   0.012743354342106   0.001039827836364   1.0
C14   C   0.312664891998375   0.935614937545773   0.362443800660355   1.0
Sn15   Sn   0.896778106475488   0.539129614212568   0.275213199816999   1.0
N16   N   0.487022063725508   0.213885231340760   0.993757120623128   1.0




# HOIP entry ID:                    0538
# Khazana ID:                       2388
# Organic cation source:            B. Zhou et al., Angew. Chem. Int. Ed. 50, 11441 (2011)
# Label:                            Azetidinium Tin Fluoride
# Material class:                   Hybrid organic-inorganic perovskite ( MC_ino )
# Geometry class:                   Bulk crystalline materials ( GC_cry )
# Organic cation chemical formula:  C3H6N2
# Number of atom types:             5
# Total number of atoms:            16
# Atom types:                       C H N  Sn F
# Number of each atom:              3 8 1  1 3
# Bandgap, HSE06 (eV):              4.9297
# Bandgap, GGA (eV):                3.8255
# Kpoint for VBM:                   0, 0.5, 0.5
# Kpoint for CBM:                   -0.25, 0.3333, 0
# Dielectric constant, electronic:  2.859
# Dielectric constant, ionic:       3.3353
# Dielectric constant, total:       6.1942
# Refractive index:                 1.6909
# Atomization energy (eV/atom):     -4.8564
# Relative energy1 (eV/atom):       -0.3543
# Relative energy2 (eV/atom):       0.2461
# Volume of the unit cell (A^3):    135.36
# Density (g/cm^3):                 2.8683
# Tool:                             VASP
# Pseudopotential:                  PAW
# Note:                             ENCUT=400eV, k-spacing_relax=0.20/Angstrom, k-spacing_bandgap=0.15/Angstrom
# Created by:                       C.Kim, T.D.Huan, S.Krishnan, R. Ramprasad