data_1
_audit_creation_method   'Generated by vasp2cif'
_cell_length_a    6.88136294281
_cell_length_b    4.60515436888
_cell_length_c    4.48077588044
_cell_angle_alpha    106.508666946
_cell_angle_beta    85.1757276334
_cell_angle_gamma    87.4657474485

_symmetry_space_group_name_H-M    'P 1'
loop_
_atom_site_label
_atom_site_type_symbol
_atom_site_fract_x
_atom_site_fract_y
_atom_site_fract_z
_atom_site_occupancy
F1   F   0.878360370571080   0.156415243952892   0.479786599013593   1.0
F2   F   0.111796590462959   0.698003192356225   0.663042156495678   1.0
F3   F   0.687906246455611   0.759208232290959   0.732580296926351   1.0
H4   H   0.368993110459463   0.975373024940346   0.610873411508891   1.0
H5   H   0.554279784444326   0.523618404302916   0.878734177537886   1.0
H6   H   0.647760011280731   0.170491342012440   0.810754753638314   1.0
H7   H   0.599046752302044   0.205900578741172   0.330248381596839   1.0
H8   H   0.419058318035091   0.517878122128415   0.398327063803578   1.0
H9   H   0.169484140356168   0.147705279928772   0.258939231256924   1.0
H10   H   0.350518338438199   0.848441025308148   0.100890408534077   1.0
H11   H   0.230457450346449   0.330357751171967   0.787274300731134   1.0
C12   C   0.474468748199577   0.296884826544805   0.244940044779156   1.0
C13   C   0.338717334673738   0.164794343648047   0.817521772949576   1.0
C14   C   0.311683710883571   0.086081691899139   0.127190049357537   1.0
Sn15   Sn   0.908252123972346   0.655188421579197   0.339064022999040   1.0
N16   N   0.527636969118610   0.316648519194480   0.915183328871485   1.0




# HOIP entry ID:                    0539
# Khazana ID:                       2389
# Organic cation source:            B. Zhou et al., Angew. Chem. Int. Ed. 50, 11441 (2011)
# Label:                            Azetidinium Tin Fluoride
# Material class:                   Hybrid organic-inorganic perovskite ( MC_ino )
# Geometry class:                   Bulk crystalline materials ( GC_cry )
# Organic cation chemical formula:  C3H6N2
# Number of atom types:             5
# Total number of atoms:            16
# Atom types:                       C H N  Sn F
# Number of each atom:              3 8 1  1 3
# Bandgap, HSE06 (eV):              4.9335
# Bandgap, GGA (eV):                3.8236
# Kpoint for VBM:                   0, 0.5, 0.5
# Kpoint for CBM:                   -0.25, 0.2222, 0
# Dielectric constant, electronic:  2.8668
# Dielectric constant, ionic:       3.8145
# Dielectric constant, total:       6.6813
# Refractive index:                 1.6932
# Atomization energy (eV/atom):     -4.8637
# Relative energy1 (eV/atom):       -0.3615
# Relative energy2 (eV/atom):       0.2388
# Volume of the unit cell (A^3):    135.31
# Density (g/cm^3):                 2.8694
# Tool:                             VASP
# Pseudopotential:                  PAW
# Note:                             ENCUT=400eV, k-spacing_relax=0.20/Angstrom, k-spacing_bandgap=0.15/Angstrom
# Created by:                       C.Kim, T.D.Huan, S.Krishnan, R. Ramprasad