data_1
_audit_creation_method   'Generated by vasp2cif'
_cell_length_a    4.58009681117
_cell_length_b    6.47891265081
_cell_length_c    4.56341844442
_cell_angle_alpha    85.3812837692
_cell_angle_beta    76.79112204
_cell_angle_gamma    94.6136037905

_symmetry_space_group_name_H-M    'P 1'
loop_
_atom_site_label
_atom_site_type_symbol
_atom_site_fract_x
_atom_site_fract_y
_atom_site_fract_z
_atom_site_occupancy
F1   F   0.364132490487855   0.772520222619157   0.056731981571097   1.0
F2   F   0.894347301849095   0.774791570351887   0.588913533368718   1.0
F3   F   0.892179321626273   0.035696562038908   0.061836578435624   1.0
H4   H   0.671547250157715   0.117962963370466   0.851268391729768   1.0
H5   H   0.433655807925341   0.904534202815668   0.505935210963301   1.0
H6   H   0.104114578276992   0.493680826484557   0.482503399136007   1.0
H7   H   0.487421740938828   0.484652322440660   0.858994757335360   1.0
H8   H   0.094646958799423   0.129334547004234   0.283559402852376   1.0
C9   C   0.424889568823282   0.368035418385674   0.725915982625125   1.0
C10   C   0.406304160010180   0.063073802468935   0.541005780513380   1.0
C11   C   0.233031686007457   0.372388251868386   0.537958584252237   1.0
Sn12   Sn   0.870654212459876   0.701406474499720   0.088521473344144   1.0
N13   N   0.532469343411023   0.174727701549379   0.721754446387514   1.0
N14   N   0.227465579226639   0.181455134102350   0.422750477485437   1.0




# HOIP entry ID:                    0540
# Khazana ID:                       2390
# Organic cation source:            B.Saparov et al., Chem. Rev. 116, 4558 (2016)
# Label:                            Imidazolium Tin Fluoride
# Material class:                   Hybrid organic-inorganic perovskite ( MC_ino )
# Geometry class:                   Bulk crystalline materials ( GC_cry )
# Organic cation chemical formula:  C3H5N2
# Number of atom types:             5
# Total number of atoms:            14
# Atom types:                       C H N  Sn F
# Number of each atom:              3 5 2  1 3
# Bandgap, HSE06 (eV):              4.6995
# Bandgap, GGA (eV):                3.5977
# Kpoint for VBM:                   -0.3889, 0.3333, 0.3889
# Kpoint for CBM:                   0.5, 0, 0.5
# Dielectric constant, electronic:  3.2233
# Dielectric constant, ionic:       10.9603
# Dielectric constant, total:       14.1835
# Refractive index:                 1.7953
# Atomization energy (eV/atom):     -5.4013
# Relative energy1 (eV/atom):       -0.2374
# Relative energy2 (eV/atom):       0.4487
# Volume of the unit cell (A^3):    130.72
# Density (g/cm^3):                 3.1097
# Tool:                             VASP
# Pseudopotential:                  PAW
# Note:                             ENCUT=400eV, k-spacing_relax=0.20/Angstrom, k-spacing_bandgap=0.15/Angstrom
# Created by:                       C.Kim, T.D.Huan, S.Krishnan, R. Ramprasad