data_1
_audit_creation_method   'Generated by vasp2cif'
_cell_length_a    4.62389154419
_cell_length_b    6.41841891758
_cell_length_c    4.54599041588
_cell_angle_alpha    95.6008818475
_cell_angle_beta    77.4714201947
_cell_angle_gamma    84.7293156996

_symmetry_space_group_name_H-M    'P 1'
loop_
_atom_site_label
_atom_site_type_symbol
_atom_site_fract_x
_atom_site_fract_y
_atom_site_fract_z
_atom_site_occupancy
F1   F   0.645007691118643   0.806827209210681   0.943475826923034   1.0
F2   F   0.118254950384845   0.819961812877999   0.407370917162794   1.0
F3   F   0.110166686484995   0.078442828288175   0.939999478982948   1.0
H4   H   0.328510312598077   0.139961826404331   0.171724092278097   1.0
H5   H   0.587794612476657   0.954230254560557   0.537441216637092   1.0
H6   H   0.895933417618991   0.550441404026252   0.471351747835783   1.0
H7   H   0.497176611095419   0.505220386825066   0.113746922853579   1.0
H8   H   0.925481441555071   0.197414991901958   0.713530923524743   1.0
C9   C   0.569395414441566   0.400831650953293   0.259142587298520   1.0
C10   C   0.607274423833758   0.109921185842907   0.478736001078644   1.0
C11   C   0.769633825244270   0.422589940511244   0.436381325894978   1.0
Sn12   Sn   0.130122177278189   0.741187818405592   0.896327960294862   1.0
N13   N   0.469169105322251   0.206363430852250   0.291540061795026   1.0
N14   N   0.787259330547379   0.240075259339754   0.573970937439881   1.0




# HOIP entry ID:                    0541
# Khazana ID:                       2391
# Organic cation source:            B.Saparov et al., Chem. Rev. 116, 4558 (2016)
# Label:                            Imidazolium Tin Fluoride
# Material class:                   Hybrid organic-inorganic perovskite ( MC_ino )
# Geometry class:                   Bulk crystalline materials ( GC_cry )
# Organic cation chemical formula:  C3H5N2
# Number of atom types:             5
# Total number of atoms:            14
# Atom types:                       C H N  Sn F
# Number of each atom:              3 5 2  1 3
# Bandgap, HSE06 (eV):              4.7996
# Bandgap, GGA (eV):                3.6896
# Kpoint for VBM:                   -0.3889, -0.3333, 0.3889
# Kpoint for CBM:                   0.5, 0, 0.5
# Dielectric constant, electronic:  3.2221
# Dielectric constant, ionic:       9.6616
# Dielectric constant, total:       12.8837
# Refractive index:                 1.795
# Atomization energy (eV/atom):     -5.3993
# Relative energy1 (eV/atom):       -0.2355
# Relative energy2 (eV/atom):       0.4506
# Volume of the unit cell (A^3):    130.18
# Density (g/cm^3):                 3.1226
# Tool:                             VASP
# Pseudopotential:                  PAW
# Note:                             ENCUT=400eV, k-spacing_relax=0.20/Angstrom, k-spacing_bandgap=0.15/Angstrom
# Created by:                       C.Kim, T.D.Huan, S.Krishnan, R. Ramprasad