data_1
_audit_creation_method   'Generated by vasp2cif'
_cell_length_a    5.67190771165
_cell_length_b    5.29528443596
_cell_length_c    4.64182123254
_cell_angle_alpha    78.2437919763
_cell_angle_beta    81.3958163633
_cell_angle_gamma    98.5062344446

_symmetry_space_group_name_H-M    'P 1'
loop_
_atom_site_label
_atom_site_type_symbol
_atom_site_fract_x
_atom_site_fract_y
_atom_site_fract_z
_atom_site_occupancy
F1   F   0.246446977486805   0.805490789318910   0.082020505960116   1.0
F2   F   0.916142446530770   0.742380014636517   0.597231428309811   1.0
F3   F   0.862097164259218   0.374690400236425   0.132901832905667   1.0
H4   H   0.675829528930997   0.326678789716951   0.887652809330085   1.0
H5   H   0.673631104804137   0.974128318754495   0.590645211340444   1.0
H6   H   0.077012125367453   0.339170287322759   0.439871153564170   1.0
H7   H   0.317715193960517   0.567009771921825   0.831530449900463   1.0
H8   H   0.311725589344611   0.982920719116279   0.326615566460689   1.0
C9   C   0.354825705451788   0.415461709943102   0.718699873462924   1.0
C10   C   0.546607444647186   0.104225960073350   0.600386034751537   1.0
C11   C   0.233709198171724   0.300641162450944   0.531823892567907   1.0
Sn12   Sn   0.870384286747971   0.783193150055084   0.102887920395815   1.0
N13   N   0.549011750798378   0.288639842911671   0.757850334000004   1.0
N14   N   0.358861483498473   0.109229083541692   0.459122987050335   1.0




# HOIP entry ID:                    0542
# Khazana ID:                       2392
# Organic cation source:            B.Saparov et al., Chem. Rev. 116, 4558 (2016)
# Label:                            Imidazolium Tin Fluoride
# Material class:                   Hybrid organic-inorganic perovskite ( MC_ino )
# Geometry class:                   Bulk crystalline materials ( GC_cry )
# Organic cation chemical formula:  C3H5N2
# Number of atom types:             5
# Total number of atoms:            14
# Atom types:                       C H N  Sn F
# Number of each atom:              3 5 2  1 3
# Bandgap, HSE06 (eV):              4.3264
# Bandgap, GGA (eV):                3.31
# Kpoint for VBM:                   0.5, 0.5, 0.5
# Kpoint for CBM:                   0.5, 0.5, 0.5
# Dielectric constant, electronic:  3.0996
# Dielectric constant, ionic:       13.4372
# Dielectric constant, total:       16.5368
# Refractive index:                 1.7606
# Atomization energy (eV/atom):     -5.3982
# Relative energy1 (eV/atom):       -0.2344
# Relative energy2 (eV/atom):       0.4517
# Volume of the unit cell (A^3):    132.64
# Density (g/cm^3):                 3.0647
# Tool:                             VASP
# Pseudopotential:                  PAW
# Note:                             ENCUT=400eV, k-spacing_relax=0.20/Angstrom, k-spacing_bandgap=0.15/Angstrom
# Created by:                       C.Kim, T.D.Huan, S.Krishnan, R. Ramprasad