data_1
_audit_creation_method   'Generated by vasp2cif'
_cell_length_a    4.64147165934
_cell_length_b    5.4812761026
_cell_length_c    5.47838642703
_cell_angle_alpha    98.4709331609
_cell_angle_beta    100.241878051
_cell_angle_gamma    100.2065029

_symmetry_space_group_name_H-M    'P 1'
loop_
_atom_site_label
_atom_site_type_symbol
_atom_site_fract_x
_atom_site_fract_y
_atom_site_fract_z
_atom_site_occupancy
F1   F   0.960857253407042   0.886832967064770   0.317963997127094   1.0
F2   F   0.441109803311527   0.831672454379351   0.963723693205843   1.0
F3   F   0.909008555602213   0.491154506149300   0.898796963792186   1.0
H4   H   0.153060314538386   0.437072913045405   0.715363278602929   1.0
H5   H   0.424972566001962   0.074900233206456   0.733270642552903   1.0
H6   H   0.644620496148441   0.418962560145275   0.131831511874914   1.0
H7   H   0.252819267053951   0.665621976400828   0.352787830665548   1.0
H8   H   0.714449659158198   0.065146095401097   0.380330384092808   1.0
C9   C   0.349873973854187   0.509895745865393   0.396235040604026   1.0
C10   C   0.430284175667900   0.200314881192767   0.600967178891757   1.0
C11   C   0.536780599511552   0.385496785316356   0.284976928419710   1.0
Sn12   Sn   0.932241699211026   0.883027741480277   0.926721105848735   1.0
N13   N   0.285305114408175   0.388982899605153   0.591511928996901   1.0
N14   N   0.584036522125416   0.193978240747526   0.417369515324566   1.0




# HOIP entry ID:                    0543
# Khazana ID:                       2393
# Organic cation source:            B.Saparov et al., Chem. Rev. 116, 4558 (2016)
# Label:                            Imidazolium Tin Fluoride
# Material class:                   Hybrid organic-inorganic perovskite ( MC_ino )
# Geometry class:                   Bulk crystalline materials ( GC_cry )
# Organic cation chemical formula:  C3H5N2
# Number of atom types:             5
# Total number of atoms:            14
# Atom types:                       C H N  Sn F
# Number of each atom:              3 5 2  1 3
# Bandgap, HSE06 (eV):              4.3474
# Bandgap, GGA (eV):                3.3267
# Kpoint for VBM:                   0.5, 0.5, 0.5
# Kpoint for CBM:                   0.5, 0.5, 0.5
# Dielectric constant, electronic:  3.094
# Dielectric constant, ionic:       9.9792
# Dielectric constant, total:       13.0732
# Refractive index:                 1.759
# Atomization energy (eV/atom):     -5.3984
# Relative energy1 (eV/atom):       -0.2346
# Relative energy2 (eV/atom):       0.4515
# Volume of the unit cell (A^3):    132.66
# Density (g/cm^3):                 3.0642
# Tool:                             VASP
# Pseudopotential:                  PAW
# Note:                             ENCUT=400eV, k-spacing_relax=0.20/Angstrom, k-spacing_bandgap=0.15/Angstrom
# Created by:                       C.Kim, T.D.Huan, S.Krishnan, R. Ramprasad