data_1
_audit_creation_method   'Generated by vasp2cif'
_cell_length_a    4.74243577671
_cell_length_b    3.52410489925
_cell_length_c    7.97801165232
_cell_angle_alpha    87.5568616724
_cell_angle_beta    87.0508014433
_cell_angle_gamma    80.4482854352

_symmetry_space_group_name_H-M    'P 1'
loop_
_atom_site_label
_atom_site_type_symbol
_atom_site_fract_x
_atom_site_fract_y
_atom_site_fract_z
_atom_site_occupancy
F1   F   0.939570081335745   0.941689630491624   0.815015834598313   1.0
F2   F   0.550611169233981   0.632383068862772   0.050568751961656   1.0
F3   F   0.942971256795488   0.920318605859968   0.228850882857770   1.0
H4   H   0.543010255804070   0.572690390909763   0.263256907848387   1.0
H5   H   0.141915446991582   0.180097603337636   0.688256341071465   1.0
H6   H   0.540613438278243   0.506928382718307   0.795762081590283   1.0
H7   H   0.814210130733628   0.764783127015903   0.508972867867001   1.0
H8   H   0.141401886766211   0.212016879073367   0.368771107700880   1.0
C9   C   0.505432058271587   0.479632235551122   0.665533260509378   1.0
C10   C   0.644255810034821   0.599894280396377   0.524385599020917   1.0
C11   C   0.282524342792954   0.334634846425303   0.444370251802184   1.0
Sn12   Sn   0.020793869066296   0.500374908635571   0.024671597823634   1.0
N13   N   0.279872218447046   0.318972508221187   0.612567620779039   1.0
N14   N   0.501748035448337   0.506973532501142   0.388466894569056   1.0




# HOIP entry ID:                    0544
# Khazana ID:                       2394
# Organic cation source:            B.Saparov et al., Chem. Rev. 116, 4558 (2016)
# Label:                            Imidazolium Tin Fluoride
# Material class:                   Hybrid organic-inorganic perovskite ( MC_ino )
# Geometry class:                   Bulk crystalline materials ( GC_cry )
# Organic cation chemical formula:  C3H5N2
# Number of atom types:             5
# Total number of atoms:            14
# Atom types:                       C H N  Sn F
# Number of each atom:              3 5 2  1 3
# Bandgap, HSE06 (eV):              4.4573
# Bandgap, GGA (eV):                3.1236
# Kpoint for VBM:                   0.5, 0.5, 0.3421
# Kpoint for CBM:                   0, 0, 0
# Dielectric constant, electronic:  3.1432
# Dielectric constant, ionic:       5.9185
# Dielectric constant, total:       9.0618
# Refractive index:                 1.7729
# Atomization energy (eV/atom):     -5.3828
# Relative energy1 (eV/atom):       -0.219
# Relative energy2 (eV/atom):       0.4671
# Volume of the unit cell (A^3):    131.23
# Density (g/cm^3):                 3.0976
# Tool:                             VASP
# Pseudopotential:                  PAW
# Note:                             ENCUT=400eV, k-spacing_relax=0.20/Angstrom, k-spacing_bandgap=0.15/Angstrom
# Created by:                       C.Kim, T.D.Huan, S.Krishnan, R. Ramprasad