data_1
_audit_creation_method   'Generated by vasp2cif'
_cell_length_a    8.58420874108
_cell_length_b    3.5241152434
_cell_length_c    4.73748785082
_cell_angle_alpha    80.4735623836
_cell_angle_beta    88.8546914263
_cell_angle_gamma    68.2375529432

_symmetry_space_group_name_H-M    'P 1'
loop_
_atom_site_label
_atom_site_type_symbol
_atom_site_fract_x
_atom_site_fract_y
_atom_site_fract_z
_atom_site_occupancy
F1   F   0.210940075044795   0.661378359242193   0.968809580436973   1.0
F2   F   0.975284844384184   0.588169203721715   0.579295631934158   1.0
F3   F   0.797185100513435   0.053798594314895   0.972456116046640   1.0
H4   H   0.762465301509144   0.744076290812122   0.572060193079557   1.0
H5   H   0.337852112859877   0.773669869706032   0.170993437420345   1.0
H6   H   0.230143261357897   0.208327897953060   0.569819504821468   1.0
H7   H   0.516634992289477   0.181329919820522   0.843428653973694   1.0
H8   H   0.657254327071383   0.487602569911013   0.170343756817224   1.0
C9   C   0.360363532371576   0.051261408022746   0.534637034481952   1.0
C10   C   0.501375090042898   0.031345157380390   0.673464287175849   1.0
C11   C   0.581593196607247   0.685690913378273   0.311545993788194   1.0
Sn12   Sn   0.001289537092673   0.428765859289819   0.049940941434206   1.0
N13   N   0.413437475269774   0.837393139982675   0.308960735630037   1.0
N14   N   0.637341153585593   0.802860816464457   0.530874132959733   1.0




# HOIP entry ID:                    0545
# Khazana ID:                       2395
# Organic cation source:            B.Saparov et al., Chem. Rev. 116, 4558 (2016)
# Label:                            Imidazolium Tin Fluoride
# Material class:                   Hybrid organic-inorganic perovskite ( MC_ino )
# Geometry class:                   Bulk crystalline materials ( GC_cry )
# Organic cation chemical formula:  C3H5N2
# Number of atom types:             5
# Total number of atoms:            14
# Atom types:                       C H N  Sn F
# Number of each atom:              3 5 2  1 3
# Bandgap, HSE06 (eV):              4.4508
# Bandgap, GGA (eV):                3.1193
# Kpoint for VBM:                   0.5, 0.5, 0.5
# Kpoint for CBM:                   0, 0, 0
# Dielectric constant, electronic:  3.1454
# Dielectric constant, ionic:       6.1882
# Dielectric constant, total:       9.3336
# Refractive index:                 1.7735
# Atomization energy (eV/atom):     -5.3825
# Relative energy1 (eV/atom):       -0.2186
# Relative energy2 (eV/atom):       0.4675
# Volume of the unit cell (A^3):    131.13
# Density (g/cm^3):                 3.0999
# Tool:                             VASP
# Pseudopotential:                  PAW
# Note:                             ENCUT=400eV, k-spacing_relax=0.20/Angstrom, k-spacing_bandgap=0.15/Angstrom
# Created by:                       C.Kim, T.D.Huan, S.Krishnan, R. Ramprasad