data_1
_audit_creation_method   'Generated by vasp2cif'
_cell_length_a    7.95095149984
_cell_length_b    3.55816195303
_cell_length_c    4.71629992667
_cell_angle_alpha    99.9160121306
_cell_angle_beta    93.1772308404
_cell_angle_gamma    87.9887255145

_symmetry_space_group_name_H-M    'P 1'
loop_
_atom_site_label
_atom_site_type_symbol
_atom_site_fract_x
_atom_site_fract_y
_atom_site_fract_z
_atom_site_occupancy
F1   F   0.775790155119779   0.111150965215231   0.026694383506346   1.0
F2   F   0.011448862651918   0.826035896745807   0.428609243453693   1.0
F3   F   0.191598746619924   0.099024535220657   0.031657290591468   1.0
H4   H   0.225635945312341   0.762104205037154   0.431430817822943   1.0
H5   H   0.647683592544197   0.341816873873505   0.824509227066706   1.0
H6   H   0.758736021280633   0.659818307451864   0.426447212986219   1.0
H7   H   0.474484841683548   0.938760548058397   0.158125061549299   1.0
H8   H   0.327018756969110   0.391982529342790   0.828722792485117   1.0
C9   C   0.627736587030839   0.642170174411987   0.462984372734589   1.0
C10   C   0.487667381754669   0.772597245207116   0.326735786186532   1.0
C11   C   0.404233180099077   0.510515733591255   0.687609344579599   1.0
Sn12   Sn   0.986585049430062   0.685361150472893   0.951439640564317   1.0
N13   N   0.572746463774742   0.483525552835836   0.687912298514945   1.0
N14   N   0.350264415729271   0.688006282535540   0.470352527958269   1.0




# HOIP entry ID:                    0546
# Khazana ID:                       2396
# Organic cation source:            B.Saparov et al., Chem. Rev. 116, 4558 (2016)
# Label:                            Imidazolium Tin Fluoride
# Material class:                   Hybrid organic-inorganic perovskite ( MC_ino )
# Geometry class:                   Bulk crystalline materials ( GC_cry )
# Organic cation chemical formula:  C3H5N2
# Number of atom types:             5
# Total number of atoms:            14
# Atom types:                       C H N  Sn F
# Number of each atom:              3 5 2  1 3
# Bandgap, HSE06 (eV):              4.4669
# Bandgap, GGA (eV):                3.1435
# Kpoint for VBM:                   0.5, 0.5, 0.5
# Kpoint for CBM:                   0, 0, 0
# Dielectric constant, electronic:  3.1414
# Dielectric constant, ionic:       5.5663
# Dielectric constant, total:       8.7076
# Refractive index:                 1.7724
# Atomization energy (eV/atom):     -5.3827
# Relative energy1 (eV/atom):       -0.2189
# Relative energy2 (eV/atom):       0.4672
# Volume of the unit cell (A^3):    131.19
# Density (g/cm^3):                 3.0985
# Tool:                             VASP
# Pseudopotential:                  PAW
# Note:                             ENCUT=400eV, k-spacing_relax=0.20/Angstrom, k-spacing_bandgap=0.15/Angstrom
# Created by:                       C.Kim, T.D.Huan, S.Krishnan, R. Ramprasad