data_1
_audit_creation_method   'Generated by vasp2cif'
_cell_length_a    4.65349984778
_cell_length_b    3.43428240963
_cell_length_c    8.32085928281
_cell_angle_alpha    97.5629972803
_cell_angle_beta    86.0426720018
_cell_angle_gamma    87.5754494699

_symmetry_space_group_name_H-M    'P 1'
loop_
_atom_site_label
_atom_site_type_symbol
_atom_site_fract_x
_atom_site_fract_y
_atom_site_fract_z
_atom_site_occupancy
F1   F   0.113359546889491   0.412020579645528   0.205451442258095   1.0
F2   F   0.393295583155300   0.816322718708342   0.943096440455172   1.0
F3   F   0.969070758500408   0.312378010343721   0.826399142453319   1.0
H4   H   0.392419050360331   0.081431662921915   0.765264589375818   1.0
H5   H   0.891219949261654   0.616714540332048   0.350190643131541   1.0
H6   H   0.454965658865589   0.966903996278269   0.250962564429315   1.0
H7   H   0.125717433936870   0.289696528711815   0.528316269172443   1.0
H8   H   0.850367240236878   0.679174854569546   0.667254225157635   1.0
C9   C   0.487868959779924   0.958200634117929   0.376529370106688   1.0
C10   C   0.322885905319126   0.115493939106557   0.513111105261430   1.0
C11   C   0.706129934362984   0.807351614447981   0.591219752282029   1.0
Sn12   Sn   0.946181346111317   0.865328358975951   0.021853676837530   1.0
N13   N   0.726649115788732   0.769691382915205   0.428152798725449   1.0
N14   N   0.463119517431352   0.019301178925140   0.644697980353484   1.0




# HOIP entry ID:                    0547
# Khazana ID:                       2397
# Organic cation source:            B.Saparov et al., Chem. Rev. 116, 4558 (2016)
# Label:                            Imidazolium Tin Fluoride
# Material class:                   Hybrid organic-inorganic perovskite ( MC_ino )
# Geometry class:                   Bulk crystalline materials ( GC_cry )
# Organic cation chemical formula:  C3H5N2
# Number of atom types:             5
# Total number of atoms:            14
# Atom types:                       C H N  Sn F
# Number of each atom:              3 5 2  1 3
# Bandgap, HSE06 (eV):              4.1571
# Bandgap, GGA (eV):                2.9884
# Kpoint for VBM:                   0.5, 0.5, 0.0263
# Kpoint for CBM:                   0, 0, 0
# Dielectric constant, electronic:  3.1493
# Dielectric constant, ionic:       10.4641
# Dielectric constant, total:       13.6135
# Refractive index:                 1.7746
# Atomization energy (eV/atom):     -5.382
# Relative energy1 (eV/atom):       -0.2182
# Relative energy2 (eV/atom):       0.4679
# Volume of the unit cell (A^3):    131.33
# Density (g/cm^3):                 3.0952
# Tool:                             VASP
# Pseudopotential:                  PAW
# Note:                             ENCUT=400eV, k-spacing_relax=0.20/Angstrom, k-spacing_bandgap=0.15/Angstrom
# Created by:                       C.Kim, T.D.Huan, S.Krishnan, R. Ramprasad