data_1
_audit_creation_method   'Generated by vasp2cif'
_cell_length_a    4.70728697465
_cell_length_b    3.54059708226
_cell_length_c    8.55089874764
_cell_angle_alpha    110.908582734
_cell_angle_beta    94.2404501268
_cell_angle_gamma    87.0462840856

_symmetry_space_group_name_H-M    'P 1'
loop_
_atom_site_label
_atom_site_type_symbol
_atom_site_fract_x
_atom_site_fract_y
_atom_site_fract_z
_atom_site_occupancy
F1   F   0.056811027699467   0.150354446920538   0.784477345810402   1.0
F2   F   0.433058007456069   0.745073288492634   0.046539522817739   1.0
F3   F   0.981481569024844   0.501153029145229   0.197159216070133   1.0
H4   H   0.589865650600295   0.276099919894456   0.239206217747345   1.0
H5   H   0.191943709725983   0.324594958243694   0.656043409683789   1.0
H6   H   0.576744421341637   0.847476501280710   0.764721479885310   1.0
H7   H   0.872549797876388   0.777846022844308   0.485601685659425   1.0
H8   H   0.182791519660633   0.983107178851718   0.336655031074819   1.0
C9   C   0.549865812547608   0.654019523421525   0.636145556071043   1.0
C10   C   0.692958694143876   0.622244015643744   0.498909393237256   1.0
C11   C   0.324428118847251   0.214900485932738   0.413179227724115   1.0
Sn12   Sn   0.976581153535129   0.752863118697434   0.992432749431529   1.0
N13   N   0.321358926405090   0.400563772924578   0.579295392622811   1.0
N14   N   0.547491591135866   0.348983737706796   0.361593772164241   1.0




# HOIP entry ID:                    0548
# Khazana ID:                       2398
# Organic cation source:            B.Saparov et al., Chem. Rev. 116, 4558 (2016)
# Label:                            Imidazolium Tin Fluoride
# Material class:                   Hybrid organic-inorganic perovskite ( MC_ino )
# Geometry class:                   Bulk crystalline materials ( GC_cry )
# Organic cation chemical formula:  C3H5N2
# Number of atom types:             5
# Total number of atoms:            14
# Atom types:                       C H N  Sn F
# Number of each atom:              3 5 2  1 3
# Bandgap, HSE06 (eV):              3.985
# Bandgap, GGA (eV):                2.6833
# Kpoint for VBM:                   0.5, 0.5, 0
# Kpoint for CBM:                   0, 0, 0
# Dielectric constant, electronic:  3.1709
# Dielectric constant, ionic:       5.0083
# Dielectric constant, total:       8.1793
# Refractive index:                 1.7807
# Atomization energy (eV/atom):     -5.3804
# Relative energy1 (eV/atom):       -0.2166
# Relative energy2 (eV/atom):       0.4695
# Volume of the unit cell (A^3):    132.72
# Density (g/cm^3):                 3.0628
# Tool:                             VASP
# Pseudopotential:                  PAW
# Note:                             ENCUT=400eV, k-spacing_relax=0.20/Angstrom, k-spacing_bandgap=0.15/Angstrom
# Created by:                       C.Kim, T.D.Huan, S.Krishnan, R. Ramprasad