data_1
_audit_creation_method   'Generated by vasp2cif'
_cell_length_a    5.80029339743
_cell_length_b    5.80164572873
_cell_length_c    6.0812410116
_cell_angle_alpha    79.2922470961
_cell_angle_beta    89.8837430048
_cell_angle_gamma    96.9779363734

_symmetry_space_group_name_H-M    'P 1'
loop_
_atom_site_label
_atom_site_type_symbol
_atom_site_fract_x
_atom_site_fract_y
_atom_site_fract_z
_atom_site_occupancy
C1   C   0.457984308126321   0.575979141605139   0.330459549686694   1.0
C2   C   0.571774438615606   0.412632889144099   0.206962854413376   1.0
H3   H   0.757870190892163   0.469744635441877   0.176799976250507   1.0
H4   H   0.488981521241115   0.412410265379933   0.046267840676705   1.0
H5   H   0.569056807318589   0.420561543794044   0.648921683486151   1.0
H6   H   0.507042914527410   0.698175301204238   0.638353544583069   1.0
H7   H   0.549492666362440   0.230942493469605   0.300806748954372   1.0
H8   H   0.473028258453098   0.757128795175817   0.237422906747639   1.0
H9   H   0.275378234461904   0.513638395724762   0.372343992939342   1.0
H10   H   0.752436805505702   0.652673094350561   0.519144611187855   1.0
Cl11   Cl   0.499824645377238   0.023393639456231   0.810461717555903   1.0
Cl12   Cl   0.067818072114285   0.464395922795127   0.809504832062686   1.0
Cl13   Cl   0.024072422366579   0.987218731766660   0.331964328607711   1.0
N14   N   0.579306283192118   0.587333591053188   0.550131914452834   1.0
Sn15   Sn   0.020642431445452   0.002361559638693   0.891473498395129   1.0




# HOIP entry ID:                    0549
# Khazana ID:                       2399
# Organic cation source:            B.Saparov et al., Chem. Rev. 116, 4558 (2016)
# Label:                            Ethylammonium Tin Chloride
# Material class:                   Hybrid organic-inorganic perovskite ( MC_ino )
# Geometry class:                   Bulk crystalline materials ( GC_cry )
# Organic cation chemical formula:  CH3CH2NH3
# Number of atom types:             5
# Total number of atoms:            15
# Atom types:                       C H N  Sn Cl
# Number of each atom:              2 8 1  1 3
# Bandgap, HSE06 (eV):              3.0222
# Bandgap, GGA (eV):                2.2771
# Kpoint for VBM:                   0.5, 0.5, 0.5
# Kpoint for CBM:                   0.5, 0.5, 0.5
# Dielectric constant, electronic:  3.5757
# Dielectric constant, ionic:       7.8054
# Dielectric constant, total:       11.3811
# Refractive index:                 1.891
# Atomization energy (eV/atom):     -4.3962
# Relative energy1 (eV/atom):       -0.067
# Relative energy2 (eV/atom):       0.2016
# Volume of the unit cell (A^3):    199.53
# Density (g/cm^3):                 2.2567
# Tool:                             VASP
# Pseudopotential:                  PAW
# Note:                             ENCUT=400eV, k-spacing_relax=0.20/Angstrom, k-spacing_bandgap=0.15/Angstrom
# Created by:                       C.Kim, T.D.Huan, S.Krishnan, R. Ramprasad