data_1
_audit_creation_method   'Generated by vasp2cif'
_cell_length_a    6.05555371585
_cell_length_b    5.69384340537
_cell_length_c    5.95367064212
_cell_angle_alpha    83.8614780144
_cell_angle_beta    76.3397465601
_cell_angle_gamma    84.9020823276

_symmetry_space_group_name_H-M    'P 1'
loop_
_atom_site_label
_atom_site_type_symbol
_atom_site_fract_x
_atom_site_fract_y
_atom_site_fract_z
_atom_site_occupancy
C1   C   0.574036461554535   0.781954899779919   0.310848426296729   1.0
C2   C   0.507842573275845   0.589177308668177   0.186339495660896   1.0
H3   H   0.655941632151297   0.512049646557337   0.067852355764479   1.0
H4   H   0.386536278956306   0.665245056210033   0.084679261755809   1.0
H5   H   0.678224535371093   0.540771621309304   0.569758236217410   1.0
H6   H   0.786853915503343   0.806726588731998   0.544397055874867   1.0
H7   H   0.427788470019529   0.446759344783750   0.308242081946474   1.0
H8   H   0.655581724805238   0.924000600135756   0.191301902219394   1.0
H9   H   0.428514001703931   0.856918251087052   0.432823370227183   1.0
H10   H   0.891589993610630   0.612302871272760   0.347711825911624   1.0
Cl11   Cl   0.568573095402733   0.167119274152988   0.762236022486938   1.0
Cl12   Cl   0.084182191955819   0.708392457717103   0.820606336533579   1.0
Cl13   Cl   0.054944637244581   0.162365497615319   0.271793956612619   1.0
N14   N   0.744562842172009   0.679792462933818   0.453494904911636   1.0
Sn15   Sn   0.118297646273085   0.196224119044750   0.819634767580432   1.0




# HOIP entry ID:                    0550
# Khazana ID:                       2400
# Organic cation source:            B.Saparov et al., Chem. Rev. 116, 4558 (2016)
# Label:                            Ethylammonium Tin Chloride
# Material class:                   Hybrid organic-inorganic perovskite ( MC_ino )
# Geometry class:                   Bulk crystalline materials ( GC_cry )
# Organic cation chemical formula:  CH3CH2NH3
# Number of atom types:             5
# Total number of atoms:            15
# Atom types:                       C H N  Sn Cl
# Number of each atom:              2 8 1  1 3
# Bandgap, HSE06 (eV):              2.8315
# Bandgap, GGA (eV):                2.0315
# Kpoint for VBM:                   0.5, 0.5, 0.5
# Kpoint for CBM:                   0.5, 0.5, 0.5
# Dielectric constant, electronic:  3.6762
# Dielectric constant, ionic:       36.2078
# Dielectric constant, total:       39.884
# Refractive index:                 1.9173
# Atomization energy (eV/atom):     -4.3946
# Relative energy1 (eV/atom):       -0.0654
# Relative energy2 (eV/atom):       0.2032
# Volume of the unit cell (A^3):    197.9
# Density (g/cm^3):                 2.2753
# Tool:                             VASP
# Pseudopotential:                  PAW
# Note:                             ENCUT=400eV, k-spacing_relax=0.20/Angstrom, k-spacing_bandgap=0.15/Angstrom
# Created by:                       C.Kim, T.D.Huan, S.Krishnan, R. Ramprasad