data_1
_audit_creation_method   'Generated by vasp2cif'
_cell_length_a    5.7338602464
_cell_length_b    4.19551515066
_cell_length_c    8.59668729719
_cell_angle_alpha    97.482957597
_cell_angle_beta    91.987888065
_cell_angle_gamma    97.1230129925

_symmetry_space_group_name_H-M    'P 1'
loop_
_atom_site_label
_atom_site_type_symbol
_atom_site_fract_x
_atom_site_fract_y
_atom_site_fract_z
_atom_site_occupancy
C1   C   0.574050977870876   0.734988192103962   0.417377652994723   1.0
C2   C   0.563860221444919   0.551479325789202   0.558705956723593   1.0
H3   H   0.723172211752981   0.436476713257825   0.572989976830151   1.0
H4   H   0.551251949782412   0.722020046652176   0.664191681463613   1.0
H5   H   0.743801990087178   0.396210107119195   0.267439181755933   1.0
H6   H   0.591660016044855   0.630579125318654   0.169837094866089   1.0
H7   H   0.414000069795136   0.846808801628036   0.401519524403412   1.0
H8   H   0.409577669505040   0.367633625052584   0.548928024923256   1.0
H9   H   0.728339692989870   0.917922068992802   0.426043288545003   1.0
H10   H   0.445894129675629   0.332388410692843   0.249431819501673   1.0
Cl11   Cl   0.525604168912523   0.882858729023496   0.969404614785816   1.0
Cl12   Cl   0.063329116042787   0.155777615480822   0.213734837539313   1.0
Cl13   Cl   0.068255780896798   0.075686459880835   0.708513328272971   1.0
N14   N   0.592068693986214   0.507407523076367   0.267096095440465   1.0
Sn15   Sn   0.058673311212772   0.696473255931224   0.932956921954002   1.0




# HOIP entry ID:                    0551
# Khazana ID:                       2401
# Organic cation source:            B.Saparov et al., Chem. Rev. 116, 4558 (2016)
# Label:                            Ethylammonium Tin Chloride
# Material class:                   Hybrid organic-inorganic perovskite ( MC_ino )
# Geometry class:                   Bulk crystalline materials ( GC_cry )
# Organic cation chemical formula:  CH3CH2NH3
# Number of atom types:             5
# Total number of atoms:            15
# Atom types:                       C H N  Sn Cl
# Number of each atom:              2 8 1  1 3
# Bandgap, HSE06 (eV):              4.2455
# Bandgap, GGA (eV):                3.3372
# Kpoint for VBM:                   -0.4286, -0.25, 0.4
# Kpoint for CBM:                   0.5, 0, 0.1
# Dielectric constant, electronic:  3.247
# Dielectric constant, ionic:       5.3447
# Dielectric constant, total:       8.5917
# Refractive index:                 1.802
# Atomization energy (eV/atom):     -4.3861
# Relative energy1 (eV/atom):       -0.0568
# Relative energy2 (eV/atom):       0.2117
# Volume of the unit cell (A^3):    203.19
# Density (g/cm^3):                 2.2161
# Tool:                             VASP
# Pseudopotential:                  PAW
# Note:                             ENCUT=400eV, k-spacing_relax=0.20/Angstrom, k-spacing_bandgap=0.15/Angstrom
# Created by:                       C.Kim, T.D.Huan, S.Krishnan, R. Ramprasad