data_1
_audit_creation_method   'Generated by vasp2cif'
_cell_length_a    8.24817000022
_cell_length_b    4.25908062065
_cell_length_c    5.84808836194
_cell_angle_alpha    79.4851168525
_cell_angle_beta    94.0511003501
_cell_angle_gamma    87.6330492141

_symmetry_space_group_name_H-M    'P 1'
loop_
_atom_site_label
_atom_site_type_symbol
_atom_site_fract_x
_atom_site_fract_y
_atom_site_fract_z
_atom_site_occupancy
C1   C   0.466438541567861   0.551937390362916   0.404129127433705   1.0
C2   C   0.406685197481380   0.689620936582898   0.608326030121994   1.0
H3   H   0.386406847982649   0.499483016362532   0.754554898886084   1.0
H4   H   0.494365145554021   0.845399956197397   0.672794533917376   1.0
H5   H   0.643780856892811   0.236567039765887   0.626814485694020   1.0
H6   H   0.723330308565686   0.554820250656917   0.484585544826388   1.0
H7   H   0.387495580454569   0.370542848078557   0.356420778125937   1.0
H8   H   0.291488600565138   0.827566110482373   0.553605965683410   1.0
H9   H   0.476008973652462   0.733969032553659   0.249154743273650   1.0
H10   H   0.669427596324617   0.266897065918563   0.338983100430191   1.0
Cl11   Cl   0.946557767818774   0.803939039796596   0.570122101384705   1.0
Cl12   Cl   0.709455963103039   0.098485300894907   0.012666562175738   1.0
Cl13   Cl   0.208093481056039   0.090526657584462   0.017283983705717   1.0
N14   N   0.635743238614985   0.390514872038466   0.467037937119720   1.0
Sn15   Sn   0.982631900366023   0.648500482723868   0.032370207221284   1.0




# HOIP entry ID:                    0552
# Khazana ID:                       2402
# Organic cation source:            B.Saparov et al., Chem. Rev. 116, 4558 (2016)
# Label:                            Ethylammonium Tin Chloride
# Material class:                   Hybrid organic-inorganic perovskite ( MC_ino )
# Geometry class:                   Bulk crystalline materials ( GC_cry )
# Organic cation chemical formula:  CH3CH2NH3
# Number of atom types:             5
# Total number of atoms:            15
# Atom types:                       C H N  Sn Cl
# Number of each atom:              2 8 1  1 3
# Bandgap, HSE06 (eV):              4.2373
# Bandgap, GGA (eV):                3.3111
# Kpoint for VBM:                   0.4, -0.2222, 0.4286
# Kpoint for CBM:                   -0.4, 0, 0.4286
# Dielectric constant, electronic:  3.2755
# Dielectric constant, ionic:       6.5252
# Dielectric constant, total:       9.8006
# Refractive index:                 1.8098
# Atomization energy (eV/atom):     -4.3893
# Relative energy1 (eV/atom):       -0.06
# Relative energy2 (eV/atom):       0.2085
# Volume of the unit cell (A^3):    201.18
# Density (g/cm^3):                 2.2382
# Tool:                             VASP
# Pseudopotential:                  PAW
# Note:                             ENCUT=400eV, k-spacing_relax=0.20/Angstrom, k-spacing_bandgap=0.15/Angstrom
# Created by:                       C.Kim, T.D.Huan, S.Krishnan, R. Ramprasad