data_1
_audit_creation_method   'Generated by vasp2cif'
_cell_length_a    5.96056165445
_cell_length_b    4.28457727111
_cell_length_c    8.0900317957
_cell_angle_alpha    95.0875219603
_cell_angle_beta    99.1913048063
_cell_angle_gamma    94.9260307059

_symmetry_space_group_name_H-M    'P 1'
loop_
_atom_site_label
_atom_site_type_symbol
_atom_site_fract_x
_atom_site_fract_y
_atom_site_fract_z
_atom_site_occupancy
C1   C   0.407577031085538   0.834651297370257   0.614948826014363   1.0
C2   C   0.573363451252312   0.624872075574096   0.547899339297707   1.0
H3   H   0.485756149052406   0.445367827825869   0.448682039209970   1.0
H4   H   0.695436152289410   0.771369157833711   0.493379458852544   1.0
H5   H   0.144452489161473   0.468783650709995   0.616711583815750   1.0
H6   H   0.125616404966891   0.792667484440287   0.744207086644309   1.0
H7   H   0.496782971485167   0.018258900824620   0.710718523734279   1.0
H8   H   0.668336695125305   0.510335086224138   0.648702441223399   1.0
H9   H   0.306154271426003   0.940887554553477   0.514487993156379   1.0
H10   H   0.322895563721815   0.556364101004689   0.804474777595914   1.0
Cl11   Cl   0.501606614411322   0.580959899089891   0.077848585420547   1.0
Cl12   Cl   0.930371746376551   0.132752252902826   0.868754377039870   1.0
Cl13   Cl   0.956957790647010   0.213770996012435   0.369103928178639   1.0
N14   N   0.238746302388620   0.647669792256586   0.700017266405759   1.0
Sn15   Sn   0.948546366610238   0.652819923377024   0.124583773410500   1.0




# HOIP entry ID:                    0553
# Khazana ID:                       2403
# Organic cation source:            B.Saparov et al., Chem. Rev. 116, 4558 (2016)
# Label:                            Ethylammonium Tin Chloride
# Material class:                   Hybrid organic-inorganic perovskite ( MC_ino )
# Geometry class:                   Bulk crystalline materials ( GC_cry )
# Organic cation chemical formula:  CH3CH2NH3
# Number of atom types:             5
# Total number of atoms:            15
# Atom types:                       C H N  Sn Cl
# Number of each atom:              2 8 1  1 3
# Bandgap, HSE06 (eV):              3.9468
# Bandgap, GGA (eV):                3.0518
# Kpoint for VBM:                   0.5, -0.2778, 0.3
# Kpoint for CBM:                   -0.4286, 0, 0.4
# Dielectric constant, electronic:  3.3275
# Dielectric constant, ionic:       19.4165
# Dielectric constant, total:       22.744
# Refractive index:                 1.8241
# Atomization energy (eV/atom):     -4.3885
# Relative energy1 (eV/atom):       -0.0592
# Relative energy2 (eV/atom):       0.2093
# Volume of the unit cell (A^3):    202.1
# Density (g/cm^3):                 2.228
# Tool:                             VASP
# Pseudopotential:                  PAW
# Note:                             ENCUT=400eV, k-spacing_relax=0.20/Angstrom, k-spacing_bandgap=0.15/Angstrom
# Created by:                       C.Kim, T.D.Huan, S.Krishnan, R. Ramprasad