data_1
_audit_creation_method   'Generated by vasp2cif'
_cell_length_a    7.38787081582
_cell_length_b    4.45638212976
_cell_length_c    6.91310619452
_cell_angle_alpha    108.801213541
_cell_angle_beta    84.3491986475
_cell_angle_gamma    101.400064256

_symmetry_space_group_name_H-M    'P 1'
loop_
_atom_site_label
_atom_site_type_symbol
_atom_site_fract_x
_atom_site_fract_y
_atom_site_fract_z
_atom_site_occupancy
C1   C   0.570390551444405   0.494714884185626   0.475953607522683   1.0
C2   C   0.695001310011264   0.822148509900266   0.544144521101174   1.0
H3   H   0.817407167095951   0.797709789476677   0.609931321135335   1.0
H4   H   0.743968230706997   0.912735800547580   0.415487073951660   1.0
H5   H   0.431805229813158   0.568828034975866   0.242230609564672   1.0
H6   H   0.327514328195363   0.682084601342176   0.471808724422786   1.0
H7   H   0.640500577256574   0.318172487447804   0.362489057316786   1.0
H8   H   0.625035626244539   0.997258364821811   0.660739510933666   1.0
H9   H   0.519990421505788   0.407981366912978   0.605193925187876   1.0
H10   H   0.310819837733469   0.293349182119954   0.340112419250886   1.0
Cl11   Cl   0.408136776224275   0.832027106234968   0.014813985943576   1.0
Cl12   Cl   0.988137799323439   0.265934032543043   0.197281416884749   1.0
Cl13   Cl   0.174232371023606   0.054829230958298   0.648044521893937   1.0
N14   N   0.400194005661028   0.510055554159742   0.376316964092780   1.0
Sn15   Sn   0.059275767760134   0.694251054373240   0.922872340797419   1.0




# HOIP entry ID:                    0555
# Khazana ID:                       2405
# Organic cation source:            B.Saparov et al., Chem. Rev. 116, 4558 (2016)
# Label:                            Ethylammonium Tin Chloride
# Material class:                   Hybrid organic-inorganic perovskite ( MC_ino )
# Geometry class:                   Bulk crystalline materials ( GC_cry )
# Organic cation chemical formula:  CH3CH2NH3
# Number of atom types:             5
# Total number of atoms:            15
# Atom types:                       C H N  Sn Cl
# Number of each atom:              2 8 1  1 3
# Bandgap, HSE06 (eV):              4.1526
# Bandgap, GGA (eV):                3.2044
# Kpoint for VBM:                   -0.4, -0.3333, 0.1429
# Kpoint for CBM:                   0.2, 0, 0.4286
# Dielectric constant, electronic:  3.0717
# Dielectric constant, ionic:       14.2313
# Dielectric constant, total:       17.303
# Refractive index:                 1.7526
# Atomization energy (eV/atom):     -4.3823
# Relative energy1 (eV/atom):       -0.0531
# Relative energy2 (eV/atom):       0.2154
# Volume of the unit cell (A^3):    211.06
# Density (g/cm^3):                 2.1334
# Tool:                             VASP
# Pseudopotential:                  PAW
# Note:                             ENCUT=400eV, k-spacing_relax=0.20/Angstrom, k-spacing_bandgap=0.15/Angstrom
# Created by:                       C.Kim, T.D.Huan, S.Krishnan, R. Ramprasad