data_1
_audit_creation_method   'Generated by vasp2cif'
_cell_length_a    5.8717123736
_cell_length_b    4.14710055593
_cell_length_c    9.1345414526
_cell_angle_alpha    102.680266182
_cell_angle_beta    79.880045024
_cell_angle_gamma    109.105396329

_symmetry_space_group_name_H-M    'P 1'
loop_
_atom_site_label
_atom_site_type_symbol
_atom_site_fract_x
_atom_site_fract_y
_atom_site_fract_z
_atom_site_occupancy
C1   C   0.462248223219716   0.043936982831250   0.471225203961112   1.0
C2   C   0.672430029098277   0.164810260021388   0.567139250749549   1.0
H3   H   0.783442468724680   0.988028384099051   0.538733986433344   1.0
H4   H   0.790560440179276   0.423223930784052   0.551079374134999   1.0
H5   H   0.412187444206350   0.965812608486338   0.240523480380161   1.0
H6   H   0.661114568293643   0.879510616535600   0.266672802923013   1.0
H7   H   0.347088124876228   0.780878651992157   0.480199240715012   1.0
H8   H   0.602118732018190   0.177177594792221   0.686390172173626   1.0
H9   H   0.346631462087321   0.213345560619143   0.501737642664195   1.0
H10   H   0.666868917959963   0.285687890058436   0.286329262195126   1.0
Cl11   Cl   0.507260821778423   0.367070264461814   0.008702949865545   1.0
Cl12   Cl   0.005818605344892   0.718327300924867   0.229560790275320   1.0
Cl13   Cl   0.165543653655348   0.574578564772005   0.757632182125250   1.0
N14   N   0.555025715976584   0.043776040273245   0.305118387477486   1.0
Sn15   Sn   0.051950792581125   0.135985349348589   0.963825273926118   1.0




# HOIP entry ID:                    0556
# Khazana ID:                       2406
# Organic cation source:            B.Saparov et al., Chem. Rev. 116, 4558 (2016)
# Label:                            Ethylammonium Tin Chloride
# Material class:                   Hybrid organic-inorganic perovskite ( MC_ino )
# Geometry class:                   Bulk crystalline materials ( GC_cry )
# Organic cation chemical formula:  CH3CH2NH3
# Number of atom types:             5
# Total number of atoms:            15
# Atom types:                       C H N  Sn Cl
# Number of each atom:              2 8 1  1 3
# Bandgap, HSE06 (eV):              4.2709
# Bandgap, GGA (eV):                3.3505
# Kpoint for VBM:                   -0.4286, -0.15, 0.125
# Kpoint for CBM:                   0.5, 0, 0.5
# Dielectric constant, electronic:  3.2093
# Dielectric constant, ionic:       7.6834
# Dielectric constant, total:       10.8927
# Refractive index:                 1.7915
# Atomization energy (eV/atom):     -4.3851
# Relative energy1 (eV/atom):       -0.0558
# Relative energy2 (eV/atom):       0.2127
# Volume of the unit cell (A^3):    203.75
# Density (g/cm^3):                 2.21
# Tool:                             VASP
# Pseudopotential:                  PAW
# Note:                             ENCUT=400eV, k-spacing_relax=0.20/Angstrom, k-spacing_bandgap=0.15/Angstrom
# Created by:                       C.Kim, T.D.Huan, S.Krishnan, R. Ramprasad