data_1
_audit_creation_method   'Generated by vasp2cif'
_cell_length_a    10.5724252751
_cell_length_b    4.54182251175
_cell_length_c    4.25746309712
_cell_angle_alpha    90.1787383792
_cell_angle_beta    89.6478490694
_cell_angle_gamma    84.9578841756

_symmetry_space_group_name_H-M    'P 1'
loop_
_atom_site_label
_atom_site_type_symbol
_atom_site_fract_x
_atom_site_fract_y
_atom_site_fract_z
_atom_site_occupancy
C1   C   0.597256260367423   0.718653143567046   0.550299063942464   1.0
C2   C   0.508265528267816   0.475670848157872   0.516183139022400   1.0
H3   H   0.516788744072599   0.323002735201274   0.714015778886036   1.0
H4   H   0.410466861244888   0.574572793463463   0.511006264508087   1.0
H5   H   0.752651817580697   0.445919907846994   0.740891932415744   1.0
H6   H   0.794120055520994   0.760575489217493   0.583161814619698   1.0
H7   H   0.589211624594868   0.873039086085995   0.354842061369146   1.0
H8   H   0.526412750948777   0.352210758122654   0.297356873704261   1.0
H9   H   0.580442021452709   0.842199971359661   0.768571178811073   1.0
H10   H   0.761000220178759   0.474834606020487   0.354750101177693   1.0
Cl11   Cl   0.079961123209339   0.528541532855452   0.542409513452964   1.0
Cl12   Cl   0.808325249206799   0.082443982696989   0.052424714537313   1.0
Cl13   Cl   0.338428724722095   0.003790296495280   0.033804683646517   1.0
N14   N   0.735331876250354   0.593541526898678   0.556826477970809   1.0
Sn15   Sn   0.101007142381900   0.059653322010587   0.038756401935897   1.0




# HOIP entry ID:                    0558
# Khazana ID:                       2408
# Organic cation source:            B.Saparov et al., Chem. Rev. 116, 4558 (2016)
# Label:                            Ethylammonium Tin Chloride
# Material class:                   Hybrid organic-inorganic perovskite ( MC_ino )
# Geometry class:                   Bulk crystalline materials ( GC_cry )
# Organic cation chemical formula:  CH3CH2NH3
# Number of atom types:             5
# Total number of atoms:            15
# Atom types:                       C H N  Sn Cl
# Number of each atom:              2 8 1  1 3
# Bandgap, HSE06 (eV):              2.2931
# Bandgap, GGA (eV):                1.5692
# Kpoint for VBM:                   0.5, 0.5, 0
# Kpoint for CBM:                   0.5, 0.0556, 0.5
# Dielectric constant, electronic:  3.5206
# Dielectric constant, ionic:       27.8947
# Dielectric constant, total:       31.4153
# Refractive index:                 1.8763
# Atomization energy (eV/atom):     -4.3717
# Relative energy1 (eV/atom):       -0.0425
# Relative energy2 (eV/atom):       0.226
# Volume of the unit cell (A^3):    203.64
# Density (g/cm^3):                 2.2112
# Tool:                             VASP
# Pseudopotential:                  PAW
# Note:                             ENCUT=400eV, k-spacing_relax=0.20/Angstrom, k-spacing_bandgap=0.15/Angstrom
# Created by:                       C.Kim, T.D.Huan, S.Krishnan, R. Ramprasad