data_1
_audit_creation_method   'Generated by vasp2cif'
_cell_length_a    9.86351269788
_cell_length_b    4.68345607177
_cell_length_c    5.2469108941
_cell_angle_alpha    74.4448776847
_cell_angle_beta    105.480061557
_cell_angle_gamma    120.129955507

_symmetry_space_group_name_H-M    'P 1'
loop_
_atom_site_label
_atom_site_type_symbol
_atom_site_fract_x
_atom_site_fract_y
_atom_site_fract_z
_atom_site_occupancy
C1   C   0.617228468561587   0.690901302254491   0.497434089411743   1.0
C2   C   0.502402233761153   0.502178444486900   0.699344806601667   1.0
H3   H   0.386792228399677   0.320873997340545   0.611264717728674   1.0
H4   H   0.550266699722025   0.371388408258166   0.873244863271596   1.0
H5   H   0.713722279148029   0.358445853544563   0.594661498575329   1.0
H6   H   0.742854137278327   0.589823536131030   0.292653714181251   1.0
H7   H   0.565282021312021   0.795406204734319   0.311219260545181   1.0
H8   H   0.484627765002363   0.680605359352166   0.767841004408859   1.0
H9   H   0.729472228555979   0.887234785104431   0.578234583838951   1.0
H10   H   0.559742423476189   0.270091222826213   0.335681397157619   1.0
Cl11   Cl   0.042004570560658   0.907350252819892   0.537449135185544   1.0
Cl12   Cl   0.820859254658563   0.240340323469244   0.016676070769178   1.0
Cl13   Cl   0.305639932863047   0.908372289434658   0.212533070217342   1.0
N14   N   0.660932506178898   0.459569097309514   0.422251477360476   1.0
Sn15   Sn   0.108863250521544   0.450548922934016   0.893830310746653   1.0




# HOIP entry ID:                    0559
# Khazana ID:                       2409
# Organic cation source:            B.Saparov et al., Chem. Rev. 116, 4558 (2016)
# Label:                            Ethylammonium Tin Chloride
# Material class:                   Hybrid organic-inorganic perovskite ( MC_ino )
# Geometry class:                   Bulk crystalline materials ( GC_cry )
# Organic cation chemical formula:  CH3CH2NH3
# Number of atom types:             5
# Total number of atoms:            15
# Atom types:                       C H N  Sn Cl
# Number of each atom:              2 8 1  1 3
# Bandgap, HSE06 (eV):              4.1933
# Bandgap, GGA (eV):                3.2317
# Kpoint for VBM:                   0, 0.5, 0
# Kpoint for CBM:                   0.5, 0, 0.5
# Dielectric constant, electronic:  3.2104
# Dielectric constant, ionic:       4.5256
# Dielectric constant, total:       7.7361
# Refractive index:                 1.7918
# Atomization energy (eV/atom):     -4.3728
# Relative energy1 (eV/atom):       -0.0436
# Relative energy2 (eV/atom):       0.2249
# Volume of the unit cell (A^3):    199.39
# Density (g/cm^3):                 2.2583
# Tool:                             VASP
# Pseudopotential:                  PAW
# Note:                             ENCUT=400eV, k-spacing_relax=0.20/Angstrom, k-spacing_bandgap=0.15/Angstrom
# Created by:                       C.Kim, T.D.Huan, S.Krishnan, R. Ramprasad