data_1
_audit_creation_method   'Generated by vasp2cif'
_cell_length_a    6.00692558158
_cell_length_b    5.84781962849
_cell_length_c    6.89495421631
_cell_angle_alpha    72.9568272767
_cell_angle_beta    89.079133949
_cell_angle_gamma    85.7772342389

_symmetry_space_group_name_H-M    'P 1'
loop_
_atom_site_label
_atom_site_type_symbol
_atom_site_fract_x
_atom_site_fract_y
_atom_site_fract_z
_atom_site_occupancy
C1   C   0.679044345685433   0.676098827015302   0.396332705367357   1.0
C2   C   0.614695607231624   0.442082966325820   0.363794201798442   1.0
C3   C   0.624533230021783   0.452603146191777   0.139787577764693   1.0
H4   H   0.790159229184745   0.495529869353945   0.077232055416211   1.0
H5   H   0.589466694527673   0.279627482716798   0.122410345394464   1.0
H6   H   0.445964304715538   0.403900667986200   0.421945879312951   1.0
H7   H   0.729967880568211   0.295083871985831   0.450209479427222   1.0
H8   H   0.489644954526526   0.630559970803958   0.664710762392431   1.0
H9   H   0.693476747932927   0.817913126193616   0.649861238636873   1.0
H10   H   0.500472046457318   0.587425009823704   0.050864828695040   1.0
H11   H   0.852897250013605   0.709948063828307   0.358188496830813   1.0
H12   H   0.571819108122739   0.830636423130130   0.311561213731366   1.0
H13   H   0.756401155413577   0.525561703704433   0.706686680935803   1.0
Cl14   Cl   0.746614437193273   0.049231786611919   0.859747215683498   1.0
Cl15   Cl   0.156420785436495   0.506964565389147   0.768564923970537   1.0
Cl16   Cl   0.146352538626260   0.065110977459277   0.297735364590821   1.0
N17   N   0.652306010835339   0.663616834344431   0.618590626014885   1.0
Sn18   Sn   0.180843673506878   0.038194707135460   0.930646404036587   1.0




# HOIP entry ID:                    0560
# Khazana ID:                       2410
# Organic cation source:            S.Kataoka et al., J. Am. Chem. Soc. 137, 4158 (2015)
# Label:                            Propylammonium Tin Chloride
# Material class:                   Hybrid organic-inorganic perovskite ( MC_ino )
# Geometry class:                   Bulk crystalline materials ( GC_cry )
# Organic cation chemical formula:  CH3CH2CH2NH3
# Number of atom types:             5
# Total number of atoms:            18
# Atom types:                       C H N  Sn Cl
# Number of each atom:              3 10 1  1 3
# Bandgap, HSE06 (eV):              3.9708
# Bandgap, GGA (eV):                3.1025
# Kpoint for VBM:                   0.5, 0.5, 0.5
# Kpoint for CBM:                   0.5, 0.5, 0.5
# Dielectric constant, electronic:  3.0607
# Dielectric constant, ionic:       2.9427
# Dielectric constant, total:       6.0034
# Refractive index:                 1.7495
# Atomization energy (eV/atom):     -4.5021
# Relative energy1 (eV/atom):       -0.1027
# Relative energy2 (eV/atom):       0.1211
# Volume of the unit cell (A^3):    230.93
# Density (g/cm^3):                 2.0507
# Tool:                             VASP
# Pseudopotential:                  PAW
# Note:                             ENCUT=400eV, k-spacing_relax=0.20/Angstrom, k-spacing_bandgap=0.15/Angstrom
# Created by:                       C.Kim, T.D.Huan, S.Krishnan, R. Ramprasad