data_1
_audit_creation_method   'Generated by vasp2cif'
_cell_length_a    5.96463329755
_cell_length_b    5.88049744837
_cell_length_c    7.01528366542
_cell_angle_alpha    106.542911036
_cell_angle_beta    79.355359368
_cell_angle_gamma    93.5294907785

_symmetry_space_group_name_H-M    'P 1'
loop_
_atom_site_label
_atom_site_type_symbol
_atom_site_fract_x
_atom_site_fract_y
_atom_site_fract_z
_atom_site_occupancy
C1   C   0.497001299370524   0.629617402641706   0.625704278189033   1.0
C2   C   0.395139203179070   0.441734943256343   0.729726797269166   1.0
C3   C   0.548594347289317   0.404814551040651   0.870803601991383   1.0
H4   H   0.562962582436427   0.566869253159652   0.991951114447460   1.0
H5   H   0.480368571284742   0.263819092526013   0.938557387208434   1.0
H6   H   0.377605220893486   0.273693894337249   0.615088046596121   1.0
H7   H   0.223097126023440   0.492824972851224   0.812993007510634   1.0
H8   H   0.406288860229523   0.452540738799193   0.343801716377236   1.0
H9   H   0.438090632486116   0.745564281144823   0.375727451113868   1.0
H10   H   0.721086086460666   0.353625677308194   0.788832384310133   1.0
H11   H   0.474878384664095   0.809685696662228   0.725759057039674   1.0
H12   H   0.677605616638274   0.600963845706360   0.563799701991115   1.0
H13   H   0.206887090840482   0.641746893125855   0.494976775730954   1.0
Cl14   Cl   0.482561311096603   0.031906637757004   0.216017105636837   1.0
Cl15   Cl   0.957757170551169   0.503267938007468   0.206438985236709   1.0
Cl16   Cl   0.989495626083006   0.947490450041649   0.771457590039986   1.0
N17   N   0.380064663076041   0.616655508540759   0.448031985188791   1.0
Sn18   Sn   0.948456207397008   0.037448223093676   0.156523014122655   1.0




# HOIP entry ID:                    0562
# Khazana ID:                       2412
# Organic cation source:            S.Kataoka et al., J. Am. Chem. Soc. 137, 4158 (2015)
# Label:                            Propylammonium Tin Chloride
# Material class:                   Hybrid organic-inorganic perovskite ( MC_ino )
# Geometry class:                   Bulk crystalline materials ( GC_cry )
# Organic cation chemical formula:  CH3CH2CH2NH3
# Number of atom types:             5
# Total number of atoms:            18
# Atom types:                       C H N  Sn Cl
# Number of each atom:              3 10 1  1 3
# Bandgap, HSE06 (eV):              3.2569
# Bandgap, GGA (eV):                2.4002
# Kpoint for VBM:                   0.5, 0.5, 0.5
# Kpoint for CBM:                   0.5, 0.5, 0.5
# Dielectric constant, electronic:  3.1999
# Dielectric constant, ionic:       6.5081
# Dielectric constant, total:       9.708
# Refractive index:                 1.7888
# Atomization energy (eV/atom):     -4.5046
# Relative energy1 (eV/atom):       -0.1052
# Relative energy2 (eV/atom):       0.1186
# Volume of the unit cell (A^3):    231.81
# Density (g/cm^3):                 2.043
# Tool:                             VASP
# Pseudopotential:                  PAW
# Note:                             ENCUT=400eV, k-spacing_relax=0.20/Angstrom, k-spacing_bandgap=0.15/Angstrom
# Created by:                       C.Kim, T.D.Huan, S.Krishnan, R. Ramprasad