data_1
_audit_creation_method   'Generated by vasp2cif'
_cell_length_a    6.1999828356
_cell_length_b    5.87538006279
_cell_length_c    6.14210204772
_cell_angle_alpha    98.2559430354
_cell_angle_beta    81.0000306739
_cell_angle_gamma    97.0194191603

_symmetry_space_group_name_H-M    'P 1'
loop_
_atom_site_label
_atom_site_type_symbol
_atom_site_fract_x
_atom_site_fract_y
_atom_site_fract_z
_atom_site_occupancy
C1   C   0.500866452840689   0.582922024045318   0.619020258061873   1.0
C2   C   0.500731860337412   0.423830637645609   0.794891947396499   1.0
C3   C   0.625022430546666   0.212091014485883   0.707090161345581   1.0
H4   H   0.797557796091207   0.265061336006399   0.649890687915645   1.0
H5   H   0.618905559721080   0.103601995123394   0.837699313426153   1.0
H6   H   0.330881647130549   0.372492994597318   0.865748042887938   1.0
H7   H   0.578968156641261   0.526447254624875   0.930284344353814   1.0
H8   H   0.380292157899073   0.317003350295869   0.374289337280768   1.0
H9   H   0.347133977177543   0.587643605935430   0.335028501829675   1.0
H10   H   0.554124472154638   0.106373600292413   0.568835149004442   1.0
H11   H   0.443441014086448   0.748597890263531   0.690966391089696   1.0
H12   H   0.662664022202144   0.609681079366681   0.522189766082108   1.0
H13   H   0.185332787356026   0.464521345675173   0.532949568917095   1.0
Cl14   Cl   0.364028430690390   0.937803933360651   0.188475245129953   1.0
Cl15   Cl   0.940215985102243   0.366566252936669   0.164186379880036   1.0
Cl16   Cl   0.018539439406066   0.847114141104492   0.725014484332289   1.0
N17   N   0.344631544242090   0.478520290650741   0.453800679393826   1.0
Sn18   Sn   0.935262266374490   0.908857253589540   0.152309741672552   1.0




# HOIP entry ID:                    0563
# Khazana ID:                       2413
# Organic cation source:            S.Kataoka et al., J. Am. Chem. Soc. 137, 4158 (2015)
# Label:                            Propylammonium Tin Chloride
# Material class:                   Hybrid organic-inorganic perovskite ( MC_ino )
# Geometry class:                   Bulk crystalline materials ( GC_cry )
# Organic cation chemical formula:  CH3CH2CH2NH3
# Number of atom types:             5
# Total number of atoms:            18
# Atom types:                       C H N  Sn Cl
# Number of each atom:              3 10 1  1 3
# Bandgap, HSE06 (eV):              3.5793
# Bandgap, GGA (eV):                2.6791
# Kpoint for VBM:                   0.5, 0.5, 0.5
# Kpoint for CBM:                   0.5, 0.5, 0
# Dielectric constant, electronic:  3.3692
# Dielectric constant, ionic:       4.2552
# Dielectric constant, total:       7.6244
# Refractive index:                 1.8355
# Atomization energy (eV/atom):     -4.5064
# Relative energy1 (eV/atom):       -0.1069
# Relative energy2 (eV/atom):       0.1169
# Volume of the unit cell (A^3):    217.55
# Density (g/cm^3):                 2.1769
# Tool:                             VASP
# Pseudopotential:                  PAW
# Note:                             ENCUT=400eV, k-spacing_relax=0.20/Angstrom, k-spacing_bandgap=0.15/Angstrom
# Created by:                       C.Kim, T.D.Huan, S.Krishnan, R. Ramprasad