data_1
_audit_creation_method   'Generated by vasp2cif'
_cell_length_a    6.2226184797
_cell_length_b    6.07217436935
_cell_length_c    6.04738003502
_cell_angle_alpha    76.8245379752
_cell_angle_beta    89.4125723402
_cell_angle_gamma    82.875143538

_symmetry_space_group_name_H-M    'P 1'
loop_
_atom_site_label
_atom_site_type_symbol
_atom_site_fract_x
_atom_site_fract_y
_atom_site_fract_z
_atom_site_occupancy
C1   C   0.585874586228428   0.604332708042399   0.365763734133196   1.0
C2   C   0.620466472860727   0.407907056667064   0.245546558807348   1.0
C3   C   0.412922718970407   0.303020402479063   0.218115775074075   1.0
H4   H   0.283744639648376   0.430290706545684   0.128194073634575   1.0
H5   H   0.444776320621109   0.169681158528498   0.123654071322605   1.0
H6   H   0.745480472843433   0.276293013115520   0.336367436861615   1.0
H7   H   0.688577770720102   0.475174701510639   0.079581202395069   1.0
H8   H   0.579212451412090   0.373704574435841   0.687215115580287   1.0
H9   H   0.333313280408028   0.501822565674090   0.598006273190123   1.0
H10   H   0.348971532752962   0.223719015229101   0.382330116458384   1.0
H11   H   0.736917600137325   0.668720324322500   0.390894110825229   1.0
H12   H   0.469310144665968   0.744571414771457   0.276735383018114   1.0
H13   H   0.511285769575721   0.647594267807158   0.694368272373204   1.0
Cl14   Cl   0.609926373928374   0.956079351255177   0.802280804283733   1.0
Cl15   Cl   0.010819520657705   0.375470066806052   0.746673992637135   1.0
Cl16   Cl   0.044759813579567   0.903328963289006   0.274221991033301   1.0
N17   N   0.494620775006496   0.526134824156010   0.602524422955341   1.0
Sn18   Sn   0.042029755983179   0.930854885364724   0.840906665416874   1.0




# HOIP entry ID:                    0564
# Khazana ID:                       2414
# Organic cation source:            S.Kataoka et al., J. Am. Chem. Soc. 137, 4158 (2015)
# Label:                            Propylammonium Tin Chloride
# Material class:                   Hybrid organic-inorganic perovskite ( MC_ino )
# Geometry class:                   Bulk crystalline materials ( GC_cry )
# Organic cation chemical formula:  CH3CH2CH2NH3
# Number of atom types:             5
# Total number of atoms:            18
# Atom types:                       C H N  Sn Cl
# Number of each atom:              3 10 1  1 3
# Bandgap, HSE06 (eV):              3.5213
# Bandgap, GGA (eV):                2.6901
# Kpoint for VBM:                   0.5, 0.5, 0.5
# Kpoint for CBM:                   0.5, 0.5, 0.5
# Dielectric constant, electronic:  3.2759
# Dielectric constant, ionic:       2.9057
# Dielectric constant, total:       6.1816
# Refractive index:                 1.81
# Atomization energy (eV/atom):     -4.5075
# Relative energy1 (eV/atom):       -0.1081
# Relative energy2 (eV/atom):       0.1157
# Volume of the unit cell (A^3):    220.73
# Density (g/cm^3):                 2.1455
# Tool:                             VASP
# Pseudopotential:                  PAW
# Note:                             ENCUT=400eV, k-spacing_relax=0.20/Angstrom, k-spacing_bandgap=0.15/Angstrom
# Created by:                       C.Kim, T.D.Huan, S.Krishnan, R. Ramprasad