data_1
_audit_creation_method   'Generated by vasp2cif'
_cell_length_a    6.19787745868
_cell_length_b    5.86563963446
_cell_length_c    6.1517126478
_cell_angle_alpha    81.8387189986
_cell_angle_beta    80.9472350412
_cell_angle_gamma    82.74101968

_symmetry_space_group_name_H-M    'P 1'
loop_
_atom_site_label
_atom_site_type_symbol
_atom_site_fract_x
_atom_site_fract_y
_atom_site_fract_z
_atom_site_occupancy
C1   C   0.532887225061671   0.627798216571421   0.342349720766663   1.0
C2   C   0.532636624816703   0.466911373486219   0.167904153365683   1.0
C3   C   0.404557396539722   0.258189705169279   0.255729254430413   1.0
H4   H   0.231818921201281   0.315036959476671   0.309729880433842   1.0
H5   H   0.411327797536032   0.147935224230245   0.126317736361685   1.0
H6   H   0.702653053509458   0.411568572334069   0.099430347864100   1.0
H7   H   0.457209668974940   0.569844593000305   0.030939440186188   1.0
H8   H   0.847789460902426   0.506857614508249   0.430062927250134   1.0
H9   H   0.651498238322226   0.361625285935766   0.587926868769486   1.0
H10   H   0.472075351726545   0.152698116225764   0.395962939596245   1.0
H11   H   0.591789025352369   0.792514147806713   0.269675619565078   1.0
H12   H   0.370732851415305   0.657330699668947   0.438275116385462   1.0
H13   H   0.685466336157084   0.632578910410821   0.626632571942245   1.0
Cl14   Cl   0.667782118190118   0.983078388944925   0.774061373414611   1.0
Cl15   Cl   0.092047267794982   0.412577826238298   0.797738542997614   1.0
Cl16   Cl   0.013090632873613   0.893451847132603   0.237441034221902   1.0
N17   N   0.688085033567013   0.522770999789500   0.508296860782110   1.0
Sn18   Sn   0.096942996058594   0.953191519070295   0.810905611666428   1.0




# HOIP entry ID:                    0565
# Khazana ID:                       2415
# Organic cation source:            S.Kataoka et al., J. Am. Chem. Soc. 137, 4158 (2015)
# Label:                            Propylammonium Tin Chloride
# Material class:                   Hybrid organic-inorganic perovskite ( MC_ino )
# Geometry class:                   Bulk crystalline materials ( GC_cry )
# Organic cation chemical formula:  CH3CH2CH2NH3
# Number of atom types:             5
# Total number of atoms:            18
# Atom types:                       C H N  Sn Cl
# Number of each atom:              3 10 1  1 3
# Bandgap, HSE06 (eV):              3.5638
# Bandgap, GGA (eV):                2.6582
# Kpoint for VBM:                   0.5, 0.5, 0.5
# Kpoint for CBM:                   0.5, 0.5, 0
# Dielectric constant, electronic:  3.3778
# Dielectric constant, ionic:       4.5102
# Dielectric constant, total:       7.888
# Refractive index:                 1.8379
# Atomization energy (eV/atom):     -4.5063
# Relative energy1 (eV/atom):       -0.1069
# Relative energy2 (eV/atom):       0.1169
# Volume of the unit cell (A^3):    217.38
# Density (g/cm^3):                 2.1786
# Tool:                             VASP
# Pseudopotential:                  PAW
# Note:                             ENCUT=400eV, k-spacing_relax=0.20/Angstrom, k-spacing_bandgap=0.15/Angstrom
# Created by:                       C.Kim, T.D.Huan, S.Krishnan, R. Ramprasad