data_1
_audit_creation_method   'Generated by vasp2cif'
_cell_length_a    5.87573164908
_cell_length_b    4.22837666555
_cell_length_c    10.0637530599
_cell_angle_alpha    86.7765345511
_cell_angle_beta    115.941415004
_cell_angle_gamma    101.899231115

_symmetry_space_group_name_H-M    'P 1'
loop_
_atom_site_label
_atom_site_type_symbol
_atom_site_fract_x
_atom_site_fract_y
_atom_site_fract_z
_atom_site_occupancy
C1   C   0.026767014744465   0.578814694315426   0.459728367911488   1.0
C2   C   0.752519428189281   0.620957712715565   0.421470825553165   1.0
C3   C   0.630069917526981   0.779588083912358   0.272971426168922   1.0
H4   H   0.749145906235626   0.010225847078864   0.267632365879244   1.0
H5   H   0.441946385132212   0.822770480579351   0.254505863825635   1.0
H6   H   0.631522208714848   0.383608887213462   0.417787422216001   1.0
H7   H   0.755668251234454   0.762756340708883   0.510583450645235   1.0
H8   H   0.005334571189365   0.238046391544032   0.620053474520354   1.0
H9   H   0.188196610236126   0.588991707489150   0.695835293608368   1.0
H10   H   0.030637344207726   0.421847631685957   0.378570150289306   1.0
H11   H   0.599307531868277   0.622372650510478   0.181365983545781   1.0
H12   H   0.159854368505464   0.808040226576914   0.468245140703864   1.0
H13   H   0.303997632852223   0.339379562987006   0.628182730908136   1.0
Cl14   Cl   0.267988482303565   0.885277180704421   0.888549721912383   1.0
Cl15   Cl   0.649682861002510   0.128257646981467   0.689950972210568   1.0
Cl16   Cl   0.074912726677567   0.214099467121869   0.141486296574634   1.0
N17   N   0.139442937262252   0.425267587189424   0.609376028840991   1.0
Sn18   Sn   0.853545822117091   0.718527900685295   0.937954484685825   1.0




# HOIP entry ID:                    0567
# Khazana ID:                       2417
# Organic cation source:            S.Kataoka et al., J. Am. Chem. Soc. 137, 4158 (2015)
# Label:                            Propylammonium Tin Chloride
# Material class:                   Hybrid organic-inorganic perovskite ( MC_ino )
# Geometry class:                   Bulk crystalline materials ( GC_cry )
# Organic cation chemical formula:  CH3CH2CH2NH3
# Number of atom types:             5
# Total number of atoms:            18
# Atom types:                       C H N  Sn Cl
# Number of each atom:              3 10 1  1 3
# Bandgap, HSE06 (eV):              4.3866
# Bandgap, GGA (eV):                3.4419
# Kpoint for VBM:                   -0.4286, -0.25, 0.2
# Kpoint for CBM:                   0.3571, 0, 0.1
# Dielectric constant, electronic:  3.2255
# Dielectric constant, ionic:       6.7006
# Dielectric constant, total:       9.9261
# Refractive index:                 1.796
# Atomization energy (eV/atom):     -4.5014
# Relative energy1 (eV/atom):       -0.102
# Relative energy2 (eV/atom):       0.1218
# Volume of the unit cell (A^3):    219.84
# Density (g/cm^3):                 2.1542
# Tool:                             VASP
# Pseudopotential:                  PAW
# Note:                             ENCUT=400eV, k-spacing_relax=0.20/Angstrom, k-spacing_bandgap=0.15/Angstrom
# Created by:                       C.Kim, T.D.Huan, S.Krishnan, R. Ramprasad