data_1
_audit_creation_method   'Generated by vasp2cif'
_cell_length_a    7.10139452584
_cell_length_b    4.56685766597
_cell_length_c    8.46926373319
_cell_angle_alpha    95.0852028948
_cell_angle_beta    121.027629273
_cell_angle_gamma    74.9613203521

_symmetry_space_group_name_H-M    'P 1'
loop_
_atom_site_label
_atom_site_type_symbol
_atom_site_fract_x
_atom_site_fract_y
_atom_site_fract_z
_atom_site_occupancy
C1   C   0.144543749296787   0.365867029313591   0.571854661231797   1.0
C2   C   0.310074720565339   0.545812027785082   0.592811829269714   1.0
C3   C   0.435357365898277   0.671016622812118   0.784142027175349   1.0
H4   H   0.319388324500494   0.811524758852741   0.825601118008599   1.0
H5   H   0.538815521169340   0.812056138927566   0.784535672887152   1.0
H6   H   0.435094194372667   0.392205996018845   0.565323776736385   1.0
H7   H   0.220482807429967   0.727984591757149   0.484757900303904   1.0
H8   H   0.841413462768358   0.661059504301498   0.362939948334983   1.0
H9   H   0.885034231978302   0.730282225566306   0.574454112908064   1.0
H10   H   0.135177534529056   0.185928885809531   0.477073981509747   1.0
H11   H   0.547574917056295   0.485130130677852   0.888873199122926   1.0
H12   H   0.190698168196398   0.268900538829875   0.703762380975682   1.0
H13   H   0.794311085338371   0.426262930809948   0.471636816855060   1.0
Cl14   Cl   0.798660569501322   0.027095100282963   0.162880234555367   1.0
Cl15   Cl   0.386206766971902   0.980980233654918   0.276677255244920   1.0
Cl16   Cl   0.882027038405113   0.091709760673531   0.765762531434781   1.0
N17   N   0.900670446838731   0.558125110562720   0.489809556175338   1.0
Sn18   Sn   0.075259095183313   0.701878413363936   0.059792997270243   1.0




# HOIP entry ID:                    0568
# Khazana ID:                       2418
# Organic cation source:            S.Kataoka et al., J. Am. Chem. Soc. 137, 4158 (2015)
# Label:                            Propylammonium Tin Chloride
# Material class:                   Hybrid organic-inorganic perovskite ( MC_ino )
# Geometry class:                   Bulk crystalline materials ( GC_cry )
# Organic cation chemical formula:  CH3CH2CH2NH3
# Number of atom types:             5
# Total number of atoms:            18
# Atom types:                       C H N  Sn Cl
# Number of each atom:              3 10 1  1 3
# Bandgap, HSE06 (eV):              4.4115
# Bandgap, GGA (eV):                3.4331
# Kpoint for VBM:                   0.5, -0.3889, 0.1667
# Kpoint for CBM:                   0.0833, 0, 0.4167
# Dielectric constant, electronic:  2.9854
# Dielectric constant, ionic:       2.3868
# Dielectric constant, total:       5.3722
# Refractive index:                 1.7278
# Atomization energy (eV/atom):     -4.4929
# Relative energy1 (eV/atom):       -0.0935
# Relative energy2 (eV/atom):       0.1303
# Volume of the unit cell (A^3):    226.97
# Density (g/cm^3):                 2.0865
# Tool:                             VASP
# Pseudopotential:                  PAW
# Note:                             ENCUT=400eV, k-spacing_relax=0.20/Angstrom, k-spacing_bandgap=0.15/Angstrom
# Created by:                       C.Kim, T.D.Huan, S.Krishnan, R. Ramprasad