data_1
_audit_creation_method   'Generated by vasp2cif'
_cell_length_a    8.01569098108
_cell_length_b    4.38590942961
_cell_length_c    7.10360688141
_cell_angle_alpha    103.617314792
_cell_angle_beta    81.2825845438
_cell_angle_gamma    105.184893999

_symmetry_space_group_name_H-M    'P 1'
loop_
_atom_site_label
_atom_site_type_symbol
_atom_site_fract_x
_atom_site_fract_y
_atom_site_fract_z
_atom_site_occupancy
C1   C   0.893836319388306   0.555583627914054   0.335288578047802   1.0
C2   C   0.728279539100129   0.677824602222799   0.397790155947696   1.0
C3   C   0.648184426812080   0.686021554878550   0.215675115030123   1.0
H4   H   0.612507416454932   0.442315578167047   0.126744812566557   1.0
H5   H   0.740499213948617   0.836882933251474   0.124733051721854   1.0
H6   H   0.634821573537899   0.523818158965753   0.486025296520836   1.0
H7   H   0.757848950695738   0.920719976225584   0.489640471861705   1.0
H8   H   0.953504819523324   0.502674318881731   0.609468274297690   1.0
H9   H   0.035285627532559   0.869032707241814   0.565630433694579   1.0
H10   H   0.867267045348434   0.296091093770436   0.279259426440262   1.0
H11   H   0.532033586709865   0.781580233701568   0.258916024830427   1.0
H12   H   0.973302414893290   0.674644235767559   0.223127075106774   1.0
H13   H   0.124057513050133   0.563114584385758   0.446479877563185   1.0
Cl14   Cl   0.395348412665591   0.994207261778008   0.660538533465228   1.0
Cl15   Cl   0.971386642413542   0.251953614435998   0.843919761651435   1.0
Cl16   Cl   0.239353961438141   0.153486026084472   0.223266253384260   1.0
N17   N   0.007994790301133   0.627714576713693   0.499561497619197   1.0
Sn18   Sn   0.303107746186271   0.477044915613668   0.924145360250357   1.0




# HOIP entry ID:                    0569
# Khazana ID:                       2419
# Organic cation source:            S.Kataoka et al., J. Am. Chem. Soc. 137, 4158 (2015)
# Label:                            Propylammonium Tin Chloride
# Material class:                   Hybrid organic-inorganic perovskite ( MC_ino )
# Geometry class:                   Bulk crystalline materials ( GC_cry )
# Organic cation chemical formula:  CH3CH2CH2NH3
# Number of atom types:             5
# Total number of atoms:            18
# Atom types:                       C H N  Sn Cl
# Number of each atom:              3 10 1  1 3
# Bandgap, HSE06 (eV):              4.2171
# Bandgap, GGA (eV):                3.2665
# Kpoint for VBM:                   0, -0.3333, 0.25
# Kpoint for CBM:                   -0.4, 0, 0.4167
# Dielectric constant, electronic:  2.9828
# Dielectric constant, ionic:       3.8054
# Dielectric constant, total:       6.7881
# Refractive index:                 1.7271
# Atomization energy (eV/atom):     -4.4956
# Relative energy1 (eV/atom):       -0.0962
# Relative energy2 (eV/atom):       0.1276
# Volume of the unit cell (A^3):    233.16
# Density (g/cm^3):                 2.0311
# Tool:                             VASP
# Pseudopotential:                  PAW
# Note:                             ENCUT=400eV, k-spacing_relax=0.20/Angstrom, k-spacing_bandgap=0.15/Angstrom
# Created by:                       C.Kim, T.D.Huan, S.Krishnan, R. Ramprasad