data_1
_audit_creation_method   'Generated by vasp2cif'
_cell_length_a    9.12849737162
_cell_length_b    4.54332588242
_cell_length_c    6.60674280722
_cell_angle_alpha    77.9940312853
_cell_angle_beta    60.4579393742
_cell_angle_gamma    96.1063886717

_symmetry_space_group_name_H-M    'P 1'
loop_
_atom_site_label
_atom_site_type_symbol
_atom_site_fract_x
_atom_site_fract_y
_atom_site_fract_z
_atom_site_occupancy
C1   C   0.600900231925742   0.625366641952688   0.989799778824541   1.0
C2   C   0.635956254200352   0.829120327720965   0.747834453704051   1.0
C3   C   0.787131326660152   0.116268280114639   0.634927969501753   1.0
H4   H   0.777481515005618   0.230482131500352   0.768897521703458   1.0
H5   H   0.789854558292468   0.281860439713164   0.487229895789398   1.0
H6   H   0.664661891541677   0.694288147575641   0.619132183251587   1.0
H7   H   0.517769034305623   0.900050594824059   0.776704846270263   1.0
H8   H   0.456065684712328   0.236061675480400   0.975220645950223   1.0
H9   H   0.333193742181386   0.423096766570332   0.161088898987053   1.0
H10   H   0.711076390941102   0.533088768514411   0.970070245268751   1.0
H11   H   0.912085830277270   0.053651902291612   0.557889695126676   1.0
H12   H   0.566545445048938   0.745181654618300   0.128145535380206   1.0
H13   H   0.434395071336979   0.194235212133805   0.249454438202612   1.0
Cl14   Cl   0.153822708137099   0.727931158894890   0.259277671212821   1.0
Cl15   Cl   0.363462747817643   0.326309236147203   0.641616697020581   1.0
Cl16   Cl   0.862060421998976   0.090922687927851   0.102428612119027   1.0
N17   N   0.447394257165918   0.347578288429695   0.099705560446367   1.0
Sn18   Sn   0.102212888450765   0.799296085590122   0.890505351240662   1.0




# HOIP entry ID:                    0570
# Khazana ID:                       2420
# Organic cation source:            S.Kataoka et al., J. Am. Chem. Soc. 137, 4158 (2015)
# Label:                            Propylammonium Tin Chloride
# Material class:                   Hybrid organic-inorganic perovskite ( MC_ino )
# Geometry class:                   Bulk crystalline materials ( GC_cry )
# Organic cation chemical formula:  CH3CH2CH2NH3
# Number of atom types:             5
# Total number of atoms:            18
# Atom types:                       C H N  Sn Cl
# Number of each atom:              3 10 1  1 3
# Bandgap, HSE06 (eV):              4.1083
# Bandgap, GGA (eV):                3.1778
# Kpoint for VBM:                   0.25, 0.3889, 0.5
# Kpoint for CBM:                   -0.125, 0, 0.4375
# Dielectric constant, electronic:  3.0546
# Dielectric constant, ionic:       3.245
# Dielectric constant, total:       6.2995
# Refractive index:                 1.7477
# Atomization energy (eV/atom):     -4.4919
# Relative energy1 (eV/atom):       -0.0925
# Relative energy2 (eV/atom):       0.1313
# Volume of the unit cell (A^3):    226.03
# Density (g/cm^3):                 2.0952
# Tool:                             VASP
# Pseudopotential:                  PAW
# Note:                             ENCUT=400eV, k-spacing_relax=0.20/Angstrom, k-spacing_bandgap=0.15/Angstrom
# Created by:                       C.Kim, T.D.Huan, S.Krishnan, R. Ramprasad