data_1
_audit_creation_method   'Generated by vasp2cif'
_cell_length_a    6.79593149391
_cell_length_b    5.25097190204
_cell_length_c    8.09048662334
_cell_angle_alpha    92.6211722986
_cell_angle_beta    120.208101266
_cell_angle_gamma    66.7905021791

_symmetry_space_group_name_H-M    'P 1'
loop_
_atom_site_label
_atom_site_type_symbol
_atom_site_fract_x
_atom_site_fract_y
_atom_site_fract_z
_atom_site_occupancy
C1   C   0.173046015498929   0.403883815979051   0.659232867450726   1.0
C2   C   0.276478765522620   0.585049296539250   0.616165543650976   1.0
C3   C   0.473778439552761   0.636473126579229   0.802360105490120   1.0
H4   H   0.622662361780830   0.439767581171636   0.904312565733340   1.0
H5   H   0.387052264955920   0.772516482342581   0.875851573525942   1.0
H6   H   0.360336631589556   0.480734969525502   0.531886656230980   1.0
H7   H   0.120287670816046   0.787664650998208   0.526048106436434   1.0
H8   H   0.997113998596660   0.295617922440221   0.380946732249550   1.0
H9   H   0.809749221621211   0.605322455208219   0.398803298419604   1.0
H10   H   0.311033893990355   0.184917468885555   0.720848009781581   1.0
H11   H   0.559937093923709   0.741574615722590   0.763694429076885   1.0
H12   H   0.106222029376498   0.484217356750061   0.756651188884865   1.0
H13   H   0.864277420821924   0.299454960629484   0.508166309018535   1.0
Cl14   Cl   0.725845814708319   0.002848965001513   0.151168702550801   1.0
Cl15   Cl   0.334445321171162   0.000338827572180   0.316389628227238   1.0
Cl16   Cl   0.868963203778404   0.061552814804038   0.752603201693971   1.0
N17   N   0.944122356139430   0.402373868493371   0.472866612817721   1.0
Sn18   Sn   0.086247496155751   0.732210821357451   0.086354468760814   1.0




# HOIP entry ID:                    0571
# Khazana ID:                       2421
# Organic cation source:            S.Kataoka et al., J. Am. Chem. Soc. 137, 4158 (2015)
# Label:                            Propylammonium Tin Chloride
# Material class:                   Hybrid organic-inorganic perovskite ( MC_ino )
# Geometry class:                   Bulk crystalline materials ( GC_cry )
# Organic cation chemical formula:  CH3CH2CH2NH3
# Number of atom types:             5
# Total number of atoms:            18
# Atom types:                       C H N  Sn Cl
# Number of each atom:              3 10 1  1 3
# Bandgap, HSE06 (eV):              4.2934
# Bandgap, GGA (eV):                3.3463
# Kpoint for VBM:                   0.0714, 0.5, 0.5
# Kpoint for CBM:                   0.5, 0, 0
# Dielectric constant, electronic:  3.0117
# Dielectric constant, ionic:       4.7613
# Dielectric constant, total:       7.773
# Refractive index:                 1.7354
# Atomization energy (eV/atom):     -4.4885
# Relative energy1 (eV/atom):       -0.0891
# Relative energy2 (eV/atom):       0.1347
# Volume of the unit cell (A^3):    225.04
# Density (g/cm^3):                 2.1044
# Tool:                             VASP
# Pseudopotential:                  PAW
# Note:                             ENCUT=400eV, k-spacing_relax=0.20/Angstrom, k-spacing_bandgap=0.15/Angstrom
# Created by:                       C.Kim, T.D.Huan, S.Krishnan, R. Ramprasad