data_1
_audit_creation_method   'Generated by vasp2cif'
_cell_length_a    5.95472969165
_cell_length_b    5.82518862819
_cell_length_c    9.56618833677
_cell_angle_alpha    63.8083711236
_cell_angle_beta    128.641316777
_cell_angle_gamma    95.7827221756

_symmetry_space_group_name_H-M    'P 1'
loop_
_atom_site_label
_atom_site_type_symbol
_atom_site_fract_x
_atom_site_fract_y
_atom_site_fract_z
_atom_site_occupancy
C1   C   0.889445197918982   0.571960555513972   0.395295551138266   1.0
C2   C   0.705662590326830   0.782658335211420   0.364069397706467   1.0
C3   C   0.547959959111574   0.023591690392598   0.151986049878858   1.0
H4   H   0.707584664336800   0.095473622769388   0.131895697872650   1.0
H5   H   0.432577360705360   0.181441538153056   0.133645372091504   1.0
H6   H   0.545204042510586   0.702084020955853   0.381621774573573   1.0
H7   H   0.852171333356579   0.841318000547753   0.481853407557215   1.0
H8   H   0.927178304203427   0.272477383251844   0.643033549318817   1.0
H9   H   0.225227921235186   0.392167400549546   0.715854213083752   1.0
H10   H   0.750888564131706   0.496403942996962   0.288428239850444   1.0
H11   H   0.385304178648172   0.973802981621904   0.031460536216382   1.0
H12   H   0.052456181109188   0.646468627075842   0.379491790508274   1.0
H13   H   0.170970348295277   0.181435280124042   0.629596356089078   1.0
Cl14   Cl   0.401301032252859   0.698761571455852   0.849343837259753   1.0
Cl15   Cl   0.753577013235663   0.278386777066432   0.806986698612876   1.0
Cl16   Cl   0.242318335630921   0.271438750722780   0.314558249855522   1.0
N17   N   0.064478096402178   0.336324908129643   0.609691199061083   1.0
Sn18   Sn   0.914894876588722   0.631394613461111   0.930798079325500   1.0




# HOIP entry ID:                    0572
# Khazana ID:                       2422
# Organic cation source:            S.Kataoka et al., J. Am. Chem. Soc. 137, 4158 (2015)
# Label:                            Propylammonium Tin Chloride
# Material class:                   Hybrid organic-inorganic perovskite ( MC_ino )
# Geometry class:                   Bulk crystalline materials ( GC_cry )
# Organic cation chemical formula:  CH3CH2CH2NH3
# Number of atom types:             5
# Total number of atoms:            18
# Atom types:                       C H N  Sn Cl
# Number of each atom:              3 10 1  1 3
# Bandgap, HSE06 (eV):              3.8671
# Bandgap, GGA (eV):                2.9721
# Kpoint for VBM:                   0.5, 0.5, 0
# Kpoint for CBM:                   0.5, 0.5, 0.5
# Dielectric constant, electronic:  3.1709
# Dielectric constant, ionic:       3.1093
# Dielectric constant, total:       6.2802
# Refractive index:                 1.7807
# Atomization energy (eV/atom):     -4.5007
# Relative energy1 (eV/atom):       -0.1012
# Relative energy2 (eV/atom):       0.1226
# Volume of the unit cell (A^3):    225.21
# Density (g/cm^3):                 2.1028
# Tool:                             VASP
# Pseudopotential:                  PAW
# Note:                             ENCUT=400eV, k-spacing_relax=0.20/Angstrom, k-spacing_bandgap=0.15/Angstrom
# Created by:                       C.Kim, T.D.Huan, S.Krishnan, R. Ramprasad