data_1
_audit_creation_method   'Generated by vasp2cif'
_cell_length_a    7.51136865223
_cell_length_b    5.98033666772
_cell_length_c    6.14627887682
_cell_angle_alpha    80.0320523618
_cell_angle_beta    106.852390387
_cell_angle_gamma    107.651439944

_symmetry_space_group_name_H-M    'P 1'
loop_
_atom_site_label
_atom_site_type_symbol
_atom_site_fract_x
_atom_site_fract_y
_atom_site_fract_z
_atom_site_occupancy
C1   C   0.190185910643272   0.654512432194451   0.525004372425080   1.0
C2   C   0.501967906356455   0.256319775915976   0.475709455331057   1.0
C3   C   0.334117551777403   0.365983410752783   0.426302841226928   1.0
C4   C   0.373969706564623   0.576923134857431   0.561935465778035   1.0
H5   H   0.595379209162118   0.413641636664430   0.178299038054533   1.0
H6   H   0.763468125361904   0.321917451050005   0.380022378537596   1.0
H7   H   0.714143792959192   0.572808411919958   0.402123780416090   1.0
H8   H   0.127884112823146   0.690632397443224   0.342805204572876   1.0
H9   H   0.081964123292721   0.515390697869023   0.594303543149159   1.0
H10   H   0.218458540020720   0.811328595461589   0.610173802272165   1.0
H11   H   0.211978102283837   0.227401231300000   0.467598764922805   1.0
H12   H   0.289265049707794   0.418188793317107   0.242324981254754   1.0
H13   H   0.429125313488981   0.527617335987131   0.744441601912811   1.0
H14   H   0.486754727341740   0.724395985508103   0.510307257617079   1.0
H15   H   0.574284206651640   0.244815354715605   0.656972074471184   1.0
H16   H   0.456474100306707   0.083436486492005   0.413410192252989   1.0
Cl17   Cl   0.310222281078161   0.037999590451974   0.968840247698893   1.0
Cl18   Cl   0.850700913852158   0.971973901654685   0.451136782259653   1.0
Cl19   Cl   0.875179888581947   0.502185623737169   0.942091345541819   1.0
N20   N   0.654435361879067   0.403537014512644   0.352064120825546   1.0
Sn21   Sn   0.943751075866409   0.962060738194737   0.911862749478956   1.0




# HOIP entry ID:                    0573
# Khazana ID:                       2423
# Organic cation source:            H. Hu et al., Sci. Rep. 6, 33546 (2016)
# Label:                            Butylammonium Tin Chloride
# Material class:                   Hybrid organic-inorganic perovskite ( MC_ino )
# Geometry class:                   Bulk crystalline materials ( GC_cry )
# Organic cation chemical formula:  CH3CH2CH2CH2NH3
# Number of atom types:             5
# Total number of atoms:            21
# Atom types:                       C H N  Sn Cl
# Number of each atom:              4 12 1  1 3
# Bandgap, HSE06 (eV):              3.7468
# Bandgap, GGA (eV):                2.8612
# Kpoint for VBM:                   0.5, 0.5, 0.5
# Kpoint for CBM:                   0.5, 0.5, 0.5
# Dielectric constant, electronic:  3.0418
# Dielectric constant, ionic:       2.5685
# Dielectric constant, total:       5.6103
# Refractive index:                 1.7441
# Atomization energy (eV/atom):     -4.583
# Relative energy1 (eV/atom):       -0.1334
# Relative energy2 (eV/atom):       0.0584
# Volume of the unit cell (A^3):    250.7
# Density (g/cm^3):                 1.9819
# Tool:                             VASP
# Pseudopotential:                  PAW
# Note:                             ENCUT=400eV, k-spacing_relax=0.20/Angstrom, k-spacing_bandgap=0.15/Angstrom
# Created by:                       C.Kim, T.D.Huan, S.Krishnan, R. Ramprasad