data_1
_audit_creation_method   'Generated by vasp2cif'
_cell_length_a    6.20806715964
_cell_length_b    7.17471000927
_cell_length_c    6.07661739749
_cell_angle_alpha    79.0084529914
_cell_angle_beta    96.6975293204
_cell_angle_gamma    111.355905201

_symmetry_space_group_name_H-M    'P 1'
loop_
_atom_site_label
_atom_site_type_symbol
_atom_site_fract_x
_atom_site_fract_y
_atom_site_fract_z
_atom_site_occupancy
C1   C   0.217143327297702   0.692919850456800   0.528824076912826   1.0
C2   C   0.423086057892720   0.267810806544754   0.411656458360832   1.0
C3   C   0.329775768196993   0.441288135536482   0.367893622711619   1.0
C4   C   0.285198194121446   0.503975535588592   0.582066399135579   1.0
H5   H   0.775529770673520   0.448549027026537   0.417339851694454   1.0
H6   H   0.726417612712403   0.211404954070050   0.546687744322703   1.0
H7   H   0.673797149163039   0.377109538341347   0.676184115383257   1.0
H8   H   0.358367527785933   0.821809626836157   0.449916703274313   1.0
H9   H   0.066255759124180   0.671983439853689   0.410502566776179   1.0
H10   H   0.177456513490787   0.730678474836151   0.680367111344895   1.0
H11   H   0.167916012868025   0.393133551013249   0.264734408651773   1.0
H12   H   0.448335086644228   0.573285236014624   0.264386674977660   1.0
H13   H   0.149759408120529   0.376684796070674   0.674606699174551   1.0
H14   H   0.439817773052077   0.535939828323523   0.696617901536919   1.0
H15   H   0.317572084269974   0.137813669959998   0.523986059596797   1.0
H16   H   0.439851449615748   0.220083817203709   0.256842249554308   1.0
Cl17   Cl   0.381534235284971   0.992028122362756   0.965002161097392   1.0
Cl18   Cl   0.842824314285076   0.957559344295085   0.539152397999889   1.0
Cl19   Cl   0.823159697472191   0.534095919600858   0.004966484341009   1.0
N20   N   0.666128255022914   0.331629246925192   0.523134021525331   1.0
Sn21   Sn   0.937984002905535   0.926547079139809   0.977312291627699   1.0




# HOIP entry ID:                    0574
# Khazana ID:                       2424
# Organic cation source:            H. Hu et al., Sci. Rep. 6, 33546 (2016)
# Label:                            Butylammonium Tin Chloride
# Material class:                   Hybrid organic-inorganic perovskite ( MC_ino )
# Geometry class:                   Bulk crystalline materials ( GC_cry )
# Organic cation chemical formula:  CH3CH2CH2CH2NH3
# Number of atom types:             5
# Total number of atoms:            21
# Atom types:                       C H N  Sn Cl
# Number of each atom:              4 12 1  1 3
# Bandgap, HSE06 (eV):              3.951
# Bandgap, GGA (eV):                3.081
# Kpoint for VBM:                   0.5, 0.5, 0.5
# Kpoint for CBM:                   -0.4167, -0.4167, 0.4286
# Dielectric constant, electronic:  3.0655
# Dielectric constant, ionic:       2.227
# Dielectric constant, total:       5.2925
# Refractive index:                 1.7509
# Atomization energy (eV/atom):     -4.5825
# Relative energy1 (eV/atom):       -0.133
# Relative energy2 (eV/atom):       0.0589
# Volume of the unit cell (A^3):    247.12
# Density (g/cm^3):                 2.0106
# Tool:                             VASP
# Pseudopotential:                  PAW
# Note:                             ENCUT=400eV, k-spacing_relax=0.20/Angstrom, k-spacing_bandgap=0.15/Angstrom
# Created by:                       C.Kim, T.D.Huan, S.Krishnan, R. Ramprasad