data_1
_audit_creation_method   'Generated by vasp2cif'
_cell_length_a    6.29357653224
_cell_length_b    5.84263456936
_cell_length_c    7.58811245619
_cell_angle_alpha    70.8945534025
_cell_angle_beta    85.1929643703
_cell_angle_gamma    90.0057833414

_symmetry_space_group_name_H-M    'P 1'
loop_
_atom_site_label
_atom_site_type_symbol
_atom_site_fract_x
_atom_site_fract_y
_atom_site_fract_z
_atom_site_occupancy
C1   C   0.471273439974183   0.633449967196029   0.813128741087105   1.0
C2   C   0.489668815659456   0.224249597646974   0.495796623748475   1.0
C3   C   0.416866716344828   0.339848049801546   0.642638570181404   1.0
C4   C   0.568556038118004   0.535892597221199   0.660551046944285   1.0
H5   H   0.328655875646483   0.457283287184275   0.274479388202366   1.0
H6   H   0.538439474804854   0.322133188594940   0.204293183393659   1.0
H7   H   0.577010514753610   0.557199450752826   0.278111684660260   1.0
H8   H   0.320598259376695   0.720719755567828   0.774101711965322   1.0
H9   H   0.434328491495762   0.482648426033165   0.943119766706765   1.0
H10   H   0.578516397335562   0.762374910875302   0.839722116265769   1.0
H11   H   0.399663033369904   0.193005745088151   0.777304907551091   1.0
H12   H   0.257153491790376   0.412909642190321   0.616466076065215   1.0
H13   H   0.725278273272586   0.459444604762467   0.694460001109057   1.0
H14   H   0.596066246395942   0.685684009829778   0.527517591815666   1.0
H15   H   0.653033702829639   0.162774846390910   0.508423646842708   1.0
H16   H   0.383662129139985   0.073036933604229   0.502885469589408   1.0
Cl17   Cl   0.965628463155042   0.969501067828304   0.714607921974149   1.0
Cl18   Cl   0.580983258529145   0.988388624758095   0.121652037500603   1.0
Cl19   Cl   0.993830117011100   0.523721457785193   0.208394533913804   1.0
N20   N   0.483516910411083   0.404133777668136   0.300283486333861   1.0
Sn21   Sn   0.000500350585810   0.998620059220322   0.039141494149078   1.0




# HOIP entry ID:                    0575
# Khazana ID:                       2425
# Organic cation source:            H. Hu et al., Sci. Rep. 6, 33546 (2016)
# Label:                            Butylammonium Tin Chloride
# Material class:                   Hybrid organic-inorganic perovskite ( MC_ino )
# Geometry class:                   Bulk crystalline materials ( GC_cry )
# Organic cation chemical formula:  CH3CH2CH2CH2NH3
# Number of atom types:             5
# Total number of atoms:            21
# Atom types:                       C H N  Sn Cl
# Number of each atom:              4 12 1  1 3
# Bandgap, HSE06 (eV):              4.1749
# Bandgap, GGA (eV):                3.2435
# Kpoint for VBM:                   0.5, 0.5, 0
# Kpoint for CBM:                   0.5, 0.5, 0.5
# Dielectric constant, electronic:  2.8326
# Dielectric constant, ionic:       2.3014
# Dielectric constant, total:       5.1341
# Refractive index:                 1.683
# Atomization energy (eV/atom):     -4.5838
# Relative energy1 (eV/atom):       -0.1342
# Relative energy2 (eV/atom):       0.0576
# Volume of the unit cell (A^3):    262.61
# Density (g/cm^3):                 1.892
# Tool:                             VASP
# Pseudopotential:                  PAW
# Note:                             ENCUT=400eV, k-spacing_relax=0.20/Angstrom, k-spacing_bandgap=0.15/Angstrom
# Created by:                       C.Kim, T.D.Huan, S.Krishnan, R. Ramprasad