data_1
_audit_creation_method   'Generated by vasp2cif'
_cell_length_a    6.54129083703
_cell_length_b    5.90958318295
_cell_length_c    5.88414317531
_cell_angle_alpha    82.1016002432
_cell_angle_beta    84.6608830073
_cell_angle_gamma    90.0685262261

_symmetry_space_group_name_H-M    'P 1'
loop_
_atom_site_label
_atom_site_type_symbol
_atom_site_fract_x
_atom_site_fract_y
_atom_site_fract_z
_atom_site_occupancy
C1   C   0.405626209991141   0.693391876679541   0.197239474398636   1.0
C2   C   0.559654663531937   0.888305160179428   0.193423136906148   1.0
C3   C   0.486049437640581   0.062153568256157   0.350597874973275   1.0
H4   H   0.456758005053587   0.979562473712342   0.529486610985785   1.0
H5   H   0.597924668113471   0.200060926443996   0.344003815192075   1.0
H6   H   0.342753966436177   0.134853106017594   0.295347465729599   1.0
H7   H   0.865507733650617   0.920994913231446   0.279369350888352   1.0
H8   H   0.600572794408819   0.971536555869271   0.017270905952344   1.0
H9   H   0.466042203298429   0.563140506535731   0.095210472250919   1.0
H10   H   0.267487916491326   0.762622402359611   0.123836083260358   1.0
H11   H   0.363033531818111   0.613429428758430   0.374491647663838   1.0
H12   H   0.827425613531780   0.680098270531715   0.168705220921666   1.0
H13   H   0.735358690883210   0.699215370046183   0.439410880743424   1.0
Cl14   Cl   0.659562268059339   0.402406150477397   0.736540424182344   1.0
Cl15   Cl   0.015319644073216   0.885908764508748   0.753575853953983   1.0
Cl16   Cl   0.000795877360247   0.303863522307523   0.190090830577063   1.0
N17   N   0.761721229152982   0.789929898586784   0.275404137043381   1.0
Sn18   Sn   0.054915546505036   0.334457105498068   0.732575814376737   1.0




# HOIP entry ID:                    0576
# Khazana ID:                       2426
# Organic cation source:            C.C.Stoumpos et al., J. Am. Chem. Soc. 137, 6804 (2015)
# Label:                            Isopropylammonium Tin Chloride
# Material class:                   Hybrid organic-inorganic perovskite ( MC_ino )
# Geometry class:                   Bulk crystalline materials ( GC_cry )
# Organic cation chemical formula:  (CH3)2CHNH3
# Number of atom types:             5
# Total number of atoms:            18
# Atom types:                       C H N  Sn Cl
# Number of each atom:              3 10 1  1 3
# Bandgap, HSE06 (eV):              3.8921
# Bandgap, GGA (eV):                3.0122
# Kpoint for VBM:                   0.5, 0.5, 0.5
# Kpoint for CBM:                   0.5, 0.5, 0.5
# Dielectric constant, electronic:  3.2241
# Dielectric constant, ionic:       3.8326
# Dielectric constant, total:       7.0567
# Refractive index:                 1.7956
# Atomization energy (eV/atom):     -4.5139
# Relative energy1 (eV/atom):       -0.1085
# Relative energy2 (eV/atom):       0.1153
# Volume of the unit cell (A^3):    224.3
# Density (g/cm^3):                 2.1114
# Tool:                             VASP
# Pseudopotential:                  PAW
# Note:                             ENCUT=400eV, k-spacing_relax=0.20/Angstrom, k-spacing_bandgap=0.15/Angstrom
# Created by:                       C.Kim, T.D.Huan, S.Krishnan, R. Ramprasad