data_1
_audit_creation_method   'Generated by vasp2cif'
_cell_length_a    7.17120593688
_cell_length_b    4.83742679551
_cell_length_c    7.51226129451
_cell_angle_alpha    108.244528928
_cell_angle_beta    95.2511933726
_cell_angle_gamma    100.790149933

_symmetry_space_group_name_H-M    'P 1'
loop_
_atom_site_label
_atom_site_type_symbol
_atom_site_fract_x
_atom_site_fract_y
_atom_site_fract_z
_atom_site_occupancy
C1   C   0.666693201302124   0.886261676695803   0.608308279199818   1.0
C2   C   0.564044652626386   0.572223104021695   0.594566309177168   1.0
C3   C   0.450813442565490   0.565658503306302   0.756412832208994   1.0
H4   H   0.547148095704301   0.659956501286153   0.892512801214288   1.0
H5   H   0.376286699381190   0.338841746621633   0.740328113534481   1.0
H6   H   0.343634556361550   0.701621317131796   0.762006057080320   1.0
H7   H   0.495118533660722   0.384828019707499   0.293120111270802   1.0
H8   H   0.668025018106164   0.431483721324511   0.583002089014855   1.0
H9   H   0.720556932831883   0.890709804188823   0.477459003270639   1.0
H10   H   0.568575464177123   0.035970907458108   0.641576971519839   1.0
H11   H   0.790652900481028   0.967313093153010   0.722183510100642   1.0
H12   H   0.335243134714879   0.230119918077356   0.401377921432811   1.0
H13   H   0.331725939277405   0.568295069607842   0.395184874248827   1.0
Cl14   Cl   0.114936943997712   0.837177136224867   0.410836575777111   1.0
Cl15   Cl   0.181200732535217   0.173870616829234   0.993596020033614   1.0
Cl16   Cl   0.729141002104576   0.157421650374282   0.178727549450379   1.0
N17   N   0.423166981633486   0.430734126488112   0.408235879622076   1.0
Sn18   Sn   0.949615768538784   0.542563087502977   0.057525101843261   1.0




# HOIP entry ID:                    0580
# Khazana ID:                       2430
# Organic cation source:            C.C.Stoumpos et al., J. Am. Chem. Soc. 137, 6804 (2015)
# Label:                            Isopropylammonium Tin Chloride
# Material class:                   Hybrid organic-inorganic perovskite ( MC_ino )
# Geometry class:                   Bulk crystalline materials ( GC_cry )
# Organic cation chemical formula:  (CH3)2CHNH3
# Number of atom types:             5
# Total number of atoms:            18
# Atom types:                       C H N  Sn Cl
# Number of each atom:              3 10 1  1 3
# Bandgap, HSE06 (eV):              4.2577
# Bandgap, GGA (eV):                3.3051
# Kpoint for VBM:                   0.5, 0.5, 0
# Kpoint for CBM:                   0.5, 0, 0
# Dielectric constant, electronic:  2.8592
# Dielectric constant, ionic:       2.0339
# Dielectric constant, total:       4.8931
# Refractive index:                 1.6909
# Atomization energy (eV/atom):     -4.5006
# Relative energy1 (eV/atom):       -0.0951
# Relative energy2 (eV/atom):       0.1287
# Volume of the unit cell (A^3):    239.96
# Density (g/cm^3):                 1.9736
# Tool:                             VASP
# Pseudopotential:                  PAW
# Note:                             ENCUT=400eV, k-spacing_relax=0.20/Angstrom, k-spacing_bandgap=0.15/Angstrom
# Created by:                       C.Kim, T.D.Huan, S.Krishnan, R. Ramprasad