data_1
_audit_creation_method   'Generated by vasp2cif'
_cell_length_a    8.32937168631
_cell_length_b    4.78125225952
_cell_length_c    6.55692877115
_cell_angle_alpha    113.697363191
_cell_angle_beta    77.3323208218
_cell_angle_gamma    106.47823633

_symmetry_space_group_name_H-M    'P 1'
loop_
_atom_site_label
_atom_site_type_symbol
_atom_site_fract_x
_atom_site_fract_y
_atom_site_fract_z
_atom_site_occupancy
C1   C   0.352194948751546   0.378389859257034   0.704921360651660   1.0
C2   C   0.399037346162260   0.060593698623890   0.569507381430583   1.0
C3   C   0.269389293099877   0.835249108843115   0.410833329586950   1.0
H4   H   0.145658934696151   0.795213146582832   0.506752617113193   1.0
H5   H   0.302925023357389   0.608940221266977   0.314720025902929   1.0
H6   H   0.256639743283664   0.935775508196343   0.292697109533869   1.0
H7   H   0.661589350516437   0.270821419830597   0.528988282389705   1.0
H8   H   0.416456031483335   0.961290828863298   0.684425357842962   1.0
H9   H   0.296899858422144   0.448540913360937   0.601250475321216   1.0
H10   H   0.259251464055403   0.355044189640481   0.846916806859618   1.0
H11   H   0.460152202426656   0.561224719008777   0.774000052948431   1.0
H12   H   0.613033408869740   0.897918625432389   0.355637464655828   1.0
H13   H   0.568124631736907   0.181935677396609   0.306259162363155   1.0
Cl14   Cl   0.590272614901743   0.393561991732263   0.066584405145875   1.0
Cl15   Cl   0.971208205037030   0.159316447097197   0.176299852535472   1.0
Cl16   Cl   0.804719944886685   0.814397316812013   0.626533621088733   1.0
N17   N   0.571752347811831   0.104719721306267   0.432155688227439   1.0
Sn18   Sn   0.910054650501131   0.394586606749087   0.907447006402379   1.0




# HOIP entry ID:                    0581
# Khazana ID:                       2431
# Organic cation source:            S.Kataoka et al., J. Am. Chem. Soc. 137, 4158 (2015)
# Label:                            Propylammonium Tin Chloride
# Material class:                   Hybrid organic-inorganic perovskite ( MC_ino )
# Geometry class:                   Bulk crystalline materials ( GC_cry )
# Organic cation chemical formula:  CH3CH2CH2NH3
# Number of atom types:             5
# Total number of atoms:            18
# Atom types:                       C H N  Sn Cl
# Number of each atom:              3 10 1  1 3
# Bandgap, HSE06 (eV):              4.1957
# Bandgap, GGA (eV):                3.2354
# Kpoint for VBM:                   0, -0.4444, 0.2857
# Kpoint for CBM:                   0, 0, 0.4286
# Dielectric constant, electronic:  3.0121
# Dielectric constant, ionic:       3.2396
# Dielectric constant, total:       6.2517
# Refractive index:                 1.7355
# Atomization energy (eV/atom):     -4.5019
# Relative energy1 (eV/atom):       -0.1025
# Relative energy2 (eV/atom):       0.1213
# Volume of the unit cell (A^3):    227.64
# Density (g/cm^3):                 2.0804
# Tool:                             VASP
# Pseudopotential:                  PAW
# Note:                             ENCUT=400eV, k-spacing_relax=0.20/Angstrom, k-spacing_bandgap=0.15/Angstrom
# Created by:                       C.Kim, T.D.Huan, S.Krishnan, R. Ramprasad