data_1
_audit_creation_method   'Generated by vasp2cif'
_cell_length_a    6.01207107468
_cell_length_b    5.02016135024
_cell_length_c    8.64247400363
_cell_angle_alpha    108.931606993
_cell_angle_beta    91.218468435
_cell_angle_gamma    115.083996235

_symmetry_space_group_name_H-M    'P 1'
loop_
_atom_site_label
_atom_site_type_symbol
_atom_site_fract_x
_atom_site_fract_y
_atom_site_fract_z
_atom_site_occupancy
C1   C   0.318124614414849   0.657333165929629   0.330687815592761   1.0
C2   C   0.435690012334305   0.455559518387751   0.358589024439148   1.0
C3   C   0.646471742623866   0.464632570799488   0.261026445312425   1.0
H4   H   0.576493577857832   0.392031585316658   0.128804754264898   1.0
H5   H   0.721240075231670   0.308173306003589   0.275217134442855   1.0
H6   H   0.798815274272030   0.706281391557859   0.302326110061301   1.0
H7   H   0.391453437743685   0.525417593252079   0.608632858155303   1.0
H8   H   0.290141939947787   0.212588802908463   0.327580854507346   1.0
H9   H   0.464670865424992   0.886024446267953   0.337589385803888   1.0
H10   H   0.202348627915178   0.533398251435514   0.206348962740051   1.0
H11   H   0.200127781575901   0.694488935947746   0.421325485385402   1.0
H12   H   0.637254813122254   0.456518079581464   0.566748803047780   1.0
H13   H   0.655938424411232   0.810650236035038   0.592489900285088   1.0
Cl14   Cl   0.927624423788842   0.290630611662166   0.590531632171206   1.0
Cl15   Cl   0.812426733640763   0.923689845976234   0.970395157523548   1.0
Cl16   Cl   0.366224844116267   0.107105699185311   0.788170165747438   1.0
N17   N   0.537216319115345   0.569540680993562   0.544802901214830   1.0
Sn18   Sn   0.119276492463207   0.677855278759452   0.908822609304671   1.0




# HOIP entry ID:                    0582
# Khazana ID:                       2432
# Organic cation source:            C.C.Stoumpos et al., J. Am. Chem. Soc. 137, 6804 (2015)
# Label:                            Isopropylammonium Tin Chloride
# Material class:                   Hybrid organic-inorganic perovskite ( MC_ino )
# Geometry class:                   Bulk crystalline materials ( GC_cry )
# Organic cation chemical formula:  (CH3)2CHNH3
# Number of atom types:             5
# Total number of atoms:            18
# Atom types:                       C H N  Sn Cl
# Number of each atom:              3 10 1  1 3
# Bandgap, HSE06 (eV):              4.5288
# Bandgap, GGA (eV):                3.5288
# Kpoint for VBM:                   0.2857, -0.4444, 0.25
# Kpoint for CBM:                   -0.4286, 0, 0.0833
# Dielectric constant, electronic:  3.0887
# Dielectric constant, ionic:       2.6121
# Dielectric constant, total:       5.7008
# Refractive index:                 1.7575
# Atomization energy (eV/atom):     -4.5022
# Relative energy1 (eV/atom):       -0.0968
# Relative energy2 (eV/atom):       0.127
# Volume of the unit cell (A^3):    219.59
# Density (g/cm^3):                 2.1566
# Tool:                             VASP
# Pseudopotential:                  PAW
# Note:                             ENCUT=400eV, k-spacing_relax=0.20/Angstrom, k-spacing_bandgap=0.15/Angstrom
# Created by:                       C.Kim, T.D.Huan, S.Krishnan, R. Ramprasad