data_1
_audit_creation_method   'Generated by vasp2cif'
_cell_length_a    7.75935474323
_cell_length_b    4.30565040654
_cell_length_c    7.16940668769
_cell_angle_alpha    76.5405987972
_cell_angle_beta    79.1316526437
_cell_angle_gamma    90.9139141872

_symmetry_space_group_name_H-M    'P 1'
loop_
_atom_site_label
_atom_site_type_symbol
_atom_site_fract_x
_atom_site_fract_y
_atom_site_fract_z
_atom_site_occupancy
C1   C   0.577070231526463   0.000617930660837   0.280905669663873   1.0
C2   C   0.541821550724727   0.983369011700653   0.500419344333885   1.0
C3   C   0.685414771355575   0.155541784224908   0.565005518158848   1.0
H4   H   0.806588836718312   0.031653310965545   0.542442922798323   1.0
H5   H   0.651767810362074   0.152526725061264   0.720522575012637   1.0
H6   H   0.712271205108124   0.403807041096449   0.480175701199407   1.0
H7   H   0.343277985458386   0.134312959093421   0.705614745651538   1.0
H8   H   0.525726739237221   0.735629544252085   0.584931821460380   1.0
H9   H   0.470693702977371   0.882752385776058   0.237204002017464   1.0
H10   H   0.594039118751276   0.249110183181664   0.194913872023015   1.0
H11   H   0.698137725052199   0.883769197674667   0.241578591231160   1.0
H12   H   0.345345598688482   0.336126970712414   0.476638520656437   1.0
H13   H   0.261016475297040   0.964458851647876   0.550368653726935   1.0
Cl14   Cl   0.363717413985377   0.448815350887756   0.937596793032185   1.0
Cl15   Cl   0.970194882304213   0.914269403019091   0.872573248990740   1.0
Cl16   Cl   0.113104934984904   0.686724412131312   0.392601264908301   1.0
N17   N   0.362358710041043   0.114284634451380   0.562251261107249   1.0
Sn18   Sn   0.038112307427227   0.363250303462600   0.111685494027633   1.0




# HOIP entry ID:                    0583
# Khazana ID:                       2433
# Organic cation source:            C.C.Stoumpos et al., J. Am. Chem. Soc. 137, 6804 (2015)
# Label:                            Isopropylammonium Tin Chloride
# Material class:                   Hybrid organic-inorganic perovskite ( MC_ino )
# Geometry class:                   Bulk crystalline materials ( GC_cry )
# Organic cation chemical formula:  (CH3)2CHNH3
# Number of atom types:             5
# Total number of atoms:            18
# Atom types:                       C H N  Sn Cl
# Number of each atom:              3 10 1  1 3
# Bandgap, HSE06 (eV):              4.2259
# Bandgap, GGA (eV):                3.2841
# Kpoint for VBM:                   0.1, 0.2778, 0.1667
# Kpoint for CBM:                   0, 0, 0.4167
# Dielectric constant, electronic:  3.0464
# Dielectric constant, ionic:       5.7058
# Dielectric constant, total:       8.7522
# Refractive index:                 1.7454
# Atomization energy (eV/atom):     -4.4993
# Relative energy1 (eV/atom):       -0.0939
# Relative energy2 (eV/atom):       0.1299
# Volume of the unit cell (A^3):    228.32
# Density (g/cm^3):                 2.0742
# Tool:                             VASP
# Pseudopotential:                  PAW
# Note:                             ENCUT=400eV, k-spacing_relax=0.20/Angstrom, k-spacing_bandgap=0.15/Angstrom
# Created by:                       C.Kim, T.D.Huan, S.Krishnan, R. Ramprasad