data_1
_audit_creation_method   'Generated by vasp2cif'
_cell_length_a    6.16753345207
_cell_length_b    4.29036197265
_cell_length_c    8.63079102718
_cell_angle_alpha    82.6695749701
_cell_angle_beta    83.5456310204
_cell_angle_gamma    96.8618654369

_symmetry_space_group_name_H-M    'P 1'
loop_
_atom_site_label
_atom_site_type_symbol
_atom_site_fract_x
_atom_site_fract_y
_atom_site_fract_z
_atom_site_occupancy
C1   C   0.476271621268943   0.582289864289287   0.656951485073456   1.0
C2   C   0.431098583638281   0.424304973714826   0.513303681671914   1.0
C3   C   0.301907584336931   0.607945963432968   0.400694359869505   1.0
H4   H   0.156732458107392   0.668165461386430   0.469290373508493   1.0
H5   H   0.248465316190355   0.468398526584657   0.311489786396443   1.0
H6   H   0.398023492037751   0.828485436985879   0.338524155998527   1.0
H7   H   0.637269522239990   0.253782857395002   0.333045712477308   1.0
H8   H   0.344538121213027   0.185195669329900   0.550918085787998   1.0
H9   H   0.536672172302247   0.421753482274532   0.745355062965089   1.0
H10   H   0.598907255675456   0.793585549648625   0.625890545005518   1.0
H11   H   0.324685497262351   0.654550630468435   0.710330887972013   1.0
H12   H   0.743811619682276   0.597822492046554   0.374935965334330   1.0
H13   H   0.749480347350634   0.270179859826719   0.501747950813446   1.0
Cl14   Cl   0.542868676263879   0.398206694542544   0.051172226178956   1.0
Cl15   Cl   0.960782239048562   0.987968712812467   0.210473237293023   1.0
Cl16   Cl   0.935611525551494   0.101542818732270   0.733770343356539   1.0
N17   N   0.654469688134697   0.380726966375953   0.425809383770812   1.0
Sn18   Sn   0.960484279695685   0.505224040152711   0.970786756526486   1.0




# HOIP entry ID:                    0584
# Khazana ID:                       2434
# Organic cation source:            C.C.Stoumpos et al., J. Am. Chem. Soc. 137, 6804 (2015)
# Label:                            Isopropylammonium Tin Chloride
# Material class:                   Hybrid organic-inorganic perovskite ( MC_ino )
# Geometry class:                   Bulk crystalline materials ( GC_cry )
# Organic cation chemical formula:  (CH3)2CHNH3
# Number of atom types:             5
# Total number of atoms:            18
# Atom types:                       C H N  Sn Cl
# Number of each atom:              3 10 1  1 3
# Bandgap, HSE06 (eV):              4.3481
# Bandgap, GGA (eV):                3.3938
# Kpoint for VBM:                   0.5, 0.2778, 0.5
# Kpoint for CBM:                   -0.0833, 0, 0.4
# Dielectric constant, electronic:  3.1672
# Dielectric constant, ionic:       10.4505
# Dielectric constant, total:       13.6177
# Refractive index:                 1.7797
# Atomization energy (eV/atom):     -4.4953
# Relative energy1 (eV/atom):       -0.0898
# Relative energy2 (eV/atom):       0.134
# Volume of the unit cell (A^3):    222.99
# Density (g/cm^3):                 2.1238
# Tool:                             VASP
# Pseudopotential:                  PAW
# Note:                             ENCUT=400eV, k-spacing_relax=0.20/Angstrom, k-spacing_bandgap=0.15/Angstrom
# Created by:                       C.Kim, T.D.Huan, S.Krishnan, R. Ramprasad