data_1
_audit_creation_method   'Generated by vasp2cif'
_cell_length_a    5.97226209462
_cell_length_b    5.94289964652
_cell_length_c    5.9154372597
_cell_angle_alpha    79.5102348152
_cell_angle_beta    101.504284616
_cell_angle_gamma    97.5849902504

_symmetry_space_group_name_H-M    'P 1'
loop_
_atom_site_label
_atom_site_type_symbol
_atom_site_fract_x
_atom_site_fract_y
_atom_site_fract_z
_atom_site_occupancy
Cl1   Cl   0.468845897424046   0.924478773695981   0.008185473723579   1.0
Cl2   Cl   0.987987481086996   0.950967527481751   0.453407439191835   1.0
Cl3   Cl   0.931690668196580   0.449590868974426   0.952863193023937   1.0
H4   H   0.522881091503336   0.682581799716267   0.370068583362062   1.0
H5   H   0.690534464205648   0.359011589431134   0.290042520180379   1.0
H6   H   0.676606733744350   0.543475650499985   0.609959815138403   1.0
H7   H   0.167896735417045   0.477897624623253   0.484357266016652   1.0
H8   H   0.342246213316748   0.341354662401272   0.741751038265051   1.0
H9   H   0.327067822959108   0.645868245011791   0.696614945965543   1.0
H10   H   0.384503148698435   0.342816056782894   0.213744298508239   1.0
H11   H   0.516329843422554   0.174534747510982   0.476765680576626   1.0
C12   C   0.324392551020608   0.497084949118573   0.613024594686010   1.0
C13   C   0.530846497693638   0.336164085477016   0.356916971180034   1.0
Sn14   Sn   0.922405907988420   0.985039417003797   0.001642729044185   1.0
N15   N   0.526565103132306   0.530634516310066   0.488027313593783   1.0




# HOIP entry ID:                    0587
# Khazana ID:                       2437
# Organic cation source:            B.Saparov et al., Chem. Rev. 116, 4558 (2016)
# Label:                            Dimethylammonium Tin Chloride
# Material class:                   Hybrid organic-inorganic perovskite ( MC_ino )
# Geometry class:                   Bulk crystalline materials ( GC_cry )
# Organic cation chemical formula:  (CH3)2NH2
# Number of atom types:             5
# Total number of atoms:            15
# Atom types:                       C H N  Sn Cl
# Number of each atom:              2 8 1  1 3
# Bandgap, HSE06 (eV):              2.9218
# Bandgap, GGA (eV):                2.1475
# Kpoint for VBM:                   0.5, 0.5, 0.5
# Kpoint for CBM:                   0.4737, 0.5, 0.4737
# Dielectric constant, electronic:  3.5087
# Dielectric constant, ionic:       5.9173
# Dielectric constant, total:       9.426
# Refractive index:                 1.8732
# Atomization energy (eV/atom):     -4.3755
# Relative energy1 (eV/atom):       -0.0684
# Relative energy2 (eV/atom):       0.2001
# Volume of the unit cell (A^3):    201.3
# Density (g/cm^3):                 2.2369
# Tool:                             VASP
# Pseudopotential:                  PAW
# Note:                             ENCUT=400eV, k-spacing_relax=0.20/Angstrom, k-spacing_bandgap=0.15/Angstrom
# Created by:                       C.Kim, T.D.Huan, S.Krishnan, R. Ramprasad