data_1
_audit_creation_method   'Generated by vasp2cif'
_cell_length_a    5.91999816781
_cell_length_b    4.26508495593
_cell_length_c    8.14209158437
_cell_angle_alpha    91.1246082338
_cell_angle_beta    81.8320296575
_cell_angle_gamma    99.4448298646

_symmetry_space_group_name_H-M    'P 1'
loop_
_atom_site_label
_atom_site_type_symbol
_atom_site_fract_x
_atom_site_fract_y
_atom_site_fract_z
_atom_site_occupancy
Cl1   Cl   0.055216944956015   0.120589208836201   0.197558865786028   1.0
Cl2   Cl   0.519028890444943   0.766462000218610   0.931585206823954   1.0
Cl3   Cl   0.123448633387390   0.100848418715863   0.692366661813395   1.0
H4   H   0.735162546574983   0.305393407578904   0.438874139355065   1.0
H5   H   0.380781627197230   0.474098728867908   0.586318874376701   1.0
H6   H   0.523845020435509   0.832010730806573   0.608073113446977   1.0
H7   H   0.443989709649927   0.497075292900028   0.290629074251839   1.0
H8   H   0.315587768401741   0.826549009321198   0.374332604082845   1.0
H9   H   0.618797282695041   0.877922159718786   0.297654667278309   1.0
H10   H   0.740169920928409   0.410080747901489   0.653393018493283   1.0
H11   H   0.885436534286306   0.680284269507737   0.492630572652182   1.0
C12   C   0.471040744254090   0.717584764214060   0.360199400661941   1.0
C13   C   0.736897297549916   0.496809048536704   0.529143196450917   1.0
Sn14   Sn   0.066063540896039   0.647640382809470   0.960822765297408   1.0
N15   N   0.519293538342481   0.638051830066459   0.530467839229104   1.0




# HOIP entry ID:                    0589
# Khazana ID:                       2439
# Organic cation source:            B.Saparov et al., Chem. Rev. 116, 4558 (2016)
# Label:                            Dimethylammonium Tin Chloride
# Material class:                   Hybrid organic-inorganic perovskite ( MC_ino )
# Geometry class:                   Bulk crystalline materials ( GC_cry )
# Organic cation chemical formula:  (CH3)2NH2
# Number of atom types:             5
# Total number of atoms:            15
# Atom types:                       C H N  Sn Cl
# Number of each atom:              2 8 1  1 3
# Bandgap, HSE06 (eV):              4.0756
# Bandgap, GGA (eV):                3.1655
# Kpoint for VBM:                   0.5, 0.2778, 0.5
# Kpoint for CBM:                   0.4286, 0, 0.4
# Dielectric constant, electronic:  3.2904
# Dielectric constant, ionic:       8.7742
# Dielectric constant, total:       12.0646
# Refractive index:                 1.814
# Atomization energy (eV/atom):     -4.3669
# Relative energy1 (eV/atom):       -0.0598
# Relative energy2 (eV/atom):       0.2087
# Volume of the unit cell (A^3):    200.74
# Density (g/cm^3):                 2.2431
# Tool:                             VASP
# Pseudopotential:                  PAW
# Note:                             ENCUT=400eV, k-spacing_relax=0.20/Angstrom, k-spacing_bandgap=0.15/Angstrom
# Created by:                       C.Kim, T.D.Huan, S.Krishnan, R. Ramprasad