data_1
_audit_creation_method   'Generated by vasp2cif'
_cell_length_a    5.93250665482
_cell_length_b    4.27253685605
_cell_length_c    8.11157439677
_cell_angle_alpha    91.4459761054
_cell_angle_beta    82.1837152743
_cell_angle_gamma    99.1061262965

_symmetry_space_group_name_H-M    'P 1'
loop_
_atom_site_label
_atom_site_type_symbol
_atom_site_fract_x
_atom_site_fract_y
_atom_site_fract_z
_atom_site_occupancy
Cl1   Cl   0.049297086634418   0.101249704304692   0.187608790607577   1.0
Cl2   Cl   0.510540886562183   0.745593067554502   0.921010031766080   1.0
Cl3   Cl   0.112548630811837   0.072050621411897   0.680538217193664   1.0
H4   H   0.725186263343701   0.273323141801761   0.428959503810816   1.0
H5   H   0.365278581697652   0.442044395233992   0.569999591644937   1.0
H6   H   0.508473237135753   0.794808630131307   0.599995958098482   1.0
H7   H   0.442123514581141   0.475004830139056   0.274564811210681   1.0
H8   H   0.318407846514141   0.809493098941530   0.357477633573268   1.0
H9   H   0.622486255829095   0.847120079688644   0.290063328990094   1.0
H10   H   0.713058284274034   0.359347421393245   0.647974713066645   1.0
H11   H   0.870505897242026   0.639152371023862   0.497917409256942   1.0
C12   C   0.469933558635873   0.692248340386904   0.347175602997225   1.0
C13   C   0.720340260154991   0.456564992052776   0.524298080795411   1.0
Sn14   Sn   0.058962610839217   0.628983722977964   0.950160961118662   1.0
N15   N   0.506457085743961   0.604025582957917   0.519625365869523   1.0




# HOIP entry ID:                    0590
# Khazana ID:                       2440
# Organic cation source:            B.Saparov et al., Chem. Rev. 116, 4558 (2016)
# Label:                            Dimethylammonium Tin Chloride
# Material class:                   Hybrid organic-inorganic perovskite ( MC_ino )
# Geometry class:                   Bulk crystalline materials ( GC_cry )
# Organic cation chemical formula:  (CH3)2NH2
# Number of atom types:             5
# Total number of atoms:            15
# Atom types:                       C H N  Sn Cl
# Number of each atom:              2 8 1  1 3
# Bandgap, HSE06 (eV):              4.0861
# Bandgap, GGA (eV):                3.1732
# Kpoint for VBM:                   0.5, 0.2778, 0.5
# Kpoint for CBM:                   0.4286, 0, 0.4
# Dielectric constant, electronic:  3.2824
# Dielectric constant, ionic:       8.4775
# Dielectric constant, total:       11.7599
# Refractive index:                 1.8117
# Atomization energy (eV/atom):     -4.3671
# Relative energy1 (eV/atom):       -0.0601
# Relative energy2 (eV/atom):       0.2085
# Volume of the unit cell (A^3):    201.12
# Density (g/cm^3):                 2.2389
# Tool:                             VASP
# Pseudopotential:                  PAW
# Note:                             ENCUT=400eV, k-spacing_relax=0.20/Angstrom, k-spacing_bandgap=0.15/Angstrom
# Created by:                       C.Kim, T.D.Huan, S.Krishnan, R. Ramprasad