data_1
_audit_creation_method   'Generated by vasp2cif'
_cell_length_a    8.04872882981
_cell_length_b    4.27065312684
_cell_length_c    6.83445770758
_cell_angle_alpha    120.786539814
_cell_angle_beta    93.8799388214
_cell_angle_gamma    93.2072067822

_symmetry_space_group_name_H-M    'P 1'
loop_
_atom_site_label
_atom_site_type_symbol
_atom_site_fract_x
_atom_site_fract_y
_atom_site_fract_z
_atom_site_occupancy
Cl1   Cl   0.190088811538558   0.075076462038922   0.940061568889249   1.0
Cl2   Cl   0.922959430833728   0.254455080801101   0.477045896496108   1.0
Cl3   Cl   0.674746862493194   0.949834431727858   0.880395917695324   1.0
H4   H   0.446288622962989   0.509763044838223   0.266745840085939   1.0
H5   H   0.549233884128064   0.065984982208370   0.640522630933631   1.0
H6   H   0.595499438824213   0.284521914775361   0.509061101276686   1.0
H7   H   0.256050858525043   0.964218093953804   0.508580513537744   1.0
H8   H   0.328540507299771   0.439944200997161   0.650247811629647   1.0
H9   H   0.296339356177334   0.168703411186016   0.342916158979257   1.0
H10   H   0.666933037378826   0.655995362205090   0.313701823018775   1.0
H11   H   0.527698178840637   0.747787962354550   0.138207897449490   1.0
C12   C   0.334879086324619   0.170844282063790   0.499328878973344   1.0
C13   C   0.541174714812456   0.718903565049757   0.287578875875944   1.0
Sn14   Sn   0.948700947257151   0.588038255936098   0.926961571400739   1.0
N15   N   0.513426262603360   0.078448949863933   0.495683513757996   1.0




# HOIP entry ID:                    0591
# Khazana ID:                       2441
# Organic cation source:            B.Saparov et al., Chem. Rev. 116, 4558 (2016)
# Label:                            Dimethylammonium Tin Chloride
# Material class:                   Hybrid organic-inorganic perovskite ( MC_ino )
# Geometry class:                   Bulk crystalline materials ( GC_cry )
# Organic cation chemical formula:  (CH3)2NH2
# Number of atom types:             5
# Total number of atoms:            15
# Atom types:                       C H N  Sn Cl
# Number of each atom:              2 8 1  1 3
# Bandgap, HSE06 (eV):              4.1413
# Bandgap, GGA (eV):                3.2195
# Kpoint for VBM:                   -0.4, 0.25, 0.3125
# Kpoint for CBM:                   0.5, 0, 0.5
# Dielectric constant, electronic:  3.2958
# Dielectric constant, ionic:       6.817
# Dielectric constant, total:       10.1128
# Refractive index:                 1.8154
# Atomization energy (eV/atom):     -4.3669
# Relative energy1 (eV/atom):       -0.0599
# Relative energy2 (eV/atom):       0.2087
# Volume of the unit cell (A^3):    200.23
# Density (g/cm^3):                 2.2488
# Tool:                             VASP
# Pseudopotential:                  PAW
# Note:                             ENCUT=400eV, k-spacing_relax=0.20/Angstrom, k-spacing_bandgap=0.15/Angstrom
# Created by:                       C.Kim, T.D.Huan, S.Krishnan, R. Ramprasad