data_1
_audit_creation_method   'Generated by vasp2cif'
_cell_length_a    5.88448833592
_cell_length_b    4.34728950712
_cell_length_c    7.85531041475
_cell_angle_alpha    81.9987462532
_cell_angle_beta    85.3666019727
_cell_angle_gamma    83.4051247038

_symmetry_space_group_name_H-M    'P 1'
loop_
_atom_site_label
_atom_site_type_symbol
_atom_site_fract_x
_atom_site_fract_y
_atom_site_fract_z
_atom_site_occupancy
Cl1   Cl   0.950868068716311   0.151228961285099   0.798089156302424   1.0
Cl2   Cl   0.479345568335397   0.785853265806182   0.064430829591629   1.0
Cl3   Cl   0.896339997081739   0.002713091324857   0.329651947858281   1.0
H4   H   0.291009015057014   0.143384976586411   0.535211388201816   1.0
H5   H   0.669061186097608   0.346416094874243   0.485758212970971   1.0
H6   H   0.546628178610391   0.685527058536891   0.402011759208719   1.0
H7   H   0.478270854628484   0.378499913711771   0.763364671438175   1.0
H8   H   0.604014669662455   0.732269742914781   0.691616156988431   1.0
H9   H   0.302251163763955   0.717555929322245   0.677836793690076   1.0
H10   H   0.380601910952443   0.252948740740344   0.312281926359255   1.0
H11   H   0.176395658632629   0.503405256062464   0.425115304886745   1.0
C12   C   0.471817669479911   0.588705211053828   0.670042535017117   1.0
C13   C   0.327166470651271   0.333856242465998   0.435743692258228   1.0
Sn14   Sn   0.932427993347495   0.667823744527944   0.048441256023381   1.0
N15   N   0.518025290537615   0.493863624220474   0.491515513323797   1.0




# HOIP entry ID:                    0592
# Khazana ID:                       2442
# Organic cation source:            B.Saparov et al., Chem. Rev. 116, 4558 (2016)
# Label:                            Dimethylammonium Tin Chloride
# Material class:                   Hybrid organic-inorganic perovskite ( MC_ino )
# Geometry class:                   Bulk crystalline materials ( GC_cry )
# Organic cation chemical formula:  (CH3)2NH2
# Number of atom types:             5
# Total number of atoms:            15
# Atom types:                       C H N  Sn Cl
# Number of each atom:              2 8 1  1 3
# Bandgap, HSE06 (eV):              4.1848
# Bandgap, GGA (eV):                3.259
# Kpoint for VBM:                   0.5, 0.2778, 0.3
# Kpoint for CBM:                   0.4286, 0, 0.4
# Dielectric constant, electronic:  3.3278
# Dielectric constant, ionic:       5.9447
# Dielectric constant, total:       9.2725
# Refractive index:                 1.8242
# Atomization energy (eV/atom):     -4.3663
# Relative energy1 (eV/atom):       -0.0592
# Relative energy2 (eV/atom):       0.2094
# Volume of the unit cell (A^3):    197.25
# Density (g/cm^3):                 2.2828
# Tool:                             VASP
# Pseudopotential:                  PAW
# Note:                             ENCUT=400eV, k-spacing_relax=0.20/Angstrom, k-spacing_bandgap=0.15/Angstrom
# Created by:                       C.Kim, T.D.Huan, S.Krishnan, R. Ramprasad