data_1
_audit_creation_method   'Generated by vasp2cif'
_cell_length_a    5.90200573202
_cell_length_b    6.00840882982
_cell_length_c    6.02531528493
_cell_angle_alpha    87.6061830523
_cell_angle_beta    102.599120407
_cell_angle_gamma    78.3288133588

_symmetry_space_group_name_H-M    'P 1'
loop_
_atom_site_label
_atom_site_type_symbol
_atom_site_fract_x
_atom_site_fract_y
_atom_site_fract_z
_atom_site_occupancy
C1   C   0.353268572735189   0.410173308062959   0.591737691873291   1.0
C2   C   0.506357145396663   0.527311700625162   0.480717571417365   1.0
H3   H   0.689007118087297   0.514793529403271   0.224729704671922   1.0
H4   H   0.677393222032990   0.795187203277557   0.500529001924953   1.0
H5   H   0.356247607970239   0.238665634898887   0.538876777357956   1.0
H6   H   0.169647524359377   0.508741625345849   0.545292863091120   1.0
H7   H   0.413688014121441   0.399834767006460   0.777219807570077   1.0
H8   H   0.519386340369955   0.770695525870536   0.706661445335513   1.0
H9   H   0.542345656026264   0.296062813490984   0.245411061005569   1.0
Cl10   Cl   0.991160998174557   0.988799850945554   0.592534194107714   1.0
Cl11   Cl   0.994046207863676   0.417907587740224   0.015846292963360   1.0
Cl12   Cl   0.560104935746637   0.966902277114059   0.042317795742278   1.0
N13   N   0.577870046491732   0.445698683932093   0.300928575468213   1.0
N14   N   0.562442208711786   0.716192095321809   0.560552181000084   1.0
Sn15   Sn   0.071974401912200   0.973313396964578   0.036525036470664   1.0




# HOIP entry ID:                    0593
# Khazana ID:                       2443
# Organic cation source:            C.C.Stoumpos et al., J. Am. Chem. Soc. 137, 6804 (2015)
# Label:                            Acetamidinium Tin Chloride
# Material class:                   Hybrid organic-inorganic perovskite ( MC_ino )
# Geometry class:                   Bulk crystalline materials ( GC_cry )
# Organic cation chemical formula:  CH3C(NH2)2
# Number of atom types:             5
# Total number of atoms:            15
# Atom types:                       C H N  Sn Cl
# Number of each atom:              2 7 2  1 3
# Bandgap, HSE06 (eV):              3.2887
# Bandgap, GGA (eV):                2.51
# Kpoint for VBM:                   0.5, 0.5, 0.5
# Kpoint for CBM:                   0.5, 0.3571, 0.3571
# Dielectric constant, electronic:  3.5574
# Dielectric constant, ionic:       44.663
# Dielectric constant, total:       48.2204
# Refractive index:                 1.8861
# Atomization energy (eV/atom):     -4.6822
# Relative energy1 (eV/atom):       0.0509
# Relative energy2 (eV/atom):       0.3195
# Volume of the unit cell (A^3):    203.38
# Density (g/cm^3):                 2.3201
# Tool:                             VASP
# Pseudopotential:                  PAW
# Note:                             ENCUT=400eV, k-spacing_relax=0.20/Angstrom, k-spacing_bandgap=0.15/Angstrom
# Created by:                       C.Kim, T.D.Huan, S.Krishnan, R. Ramprasad