data_1
_audit_creation_method   'Generated by vasp2cif'
_cell_length_a    5.88955158369
_cell_length_b    6.05447042054
_cell_length_c    6.04405338481
_cell_angle_alpha    92.3836650657
_cell_angle_beta    102.045253023
_cell_angle_gamma    102.490400301

_symmetry_space_group_name_H-M    'P 1'
loop_
_atom_site_label
_atom_site_type_symbol
_atom_site_fract_x
_atom_site_fract_y
_atom_site_fract_z
_atom_site_occupancy
C1   C   0.650866351816148   0.509599804958988   0.523775812651692   1.0
C2   C   0.504899240229243   0.626816003348061   0.642271354767047   1.0
H3   H   0.327802900612902   0.607004736159638   0.903930943049495   1.0
H4   H   0.322113644739360   0.882532888434881   0.624371665357188   1.0
H5   H   0.787911315754293   0.455408719138056   0.646242186151063   1.0
H6   H   0.736071530523141   0.618799185685909   0.411358347493319   1.0
H7   H   0.533442214724893   0.358226887838676   0.421904617490782   1.0
H8   H   0.477379501562595   0.863720187976817   0.414040688426390   1.0
H9   H   0.487595044327648   0.402088932471173   0.883966142436307   1.0
Cl10   Cl   0.017011792933609   0.088768449857767   0.525454440050261   1.0
Cl11   Cl   0.019567012704059   0.509254934697061   0.105099160535723   1.0
Cl12   Cl   0.445847741424437   0.060081243404667   0.075323992387844   1.0
N13   N   0.444090227295945   0.546824546381323   0.827837454940322   1.0
N14   N   0.436911576729308   0.807601833617859   0.560496604213242   1.0
Sn15   Sn   0.935559904622473   0.067321646029043   0.082936590049350   1.0




# HOIP entry ID:                    0594
# Khazana ID:                       2444
# Organic cation source:            C.C.Stoumpos et al., J. Am. Chem. Soc. 137, 6804 (2015)
# Label:                            Acetamidinium Tin Chloride
# Material class:                   Hybrid organic-inorganic perovskite ( MC_ino )
# Geometry class:                   Bulk crystalline materials ( GC_cry )
# Organic cation chemical formula:  CH3C(NH2)2
# Number of atom types:             5
# Total number of atoms:            15
# Atom types:                       C H N  Sn Cl
# Number of each atom:              2 7 2  1 3
# Bandgap, HSE06 (eV):              3.3684
# Bandgap, GGA (eV):                2.5878
# Kpoint for VBM:                   0.5, 0.5, 0.5
# Kpoint for CBM:                   0.5, 0.3571, 0.3571
# Dielectric constant, electronic:  3.53
# Dielectric constant, ionic:       41.4747
# Dielectric constant, total:       45.0047
# Refractive index:                 1.8788
# Atomization energy (eV/atom):     -4.6827
# Relative energy1 (eV/atom):       0.0505
# Relative energy2 (eV/atom):       0.319
# Volume of the unit cell (A^3):    204.94
# Density (g/cm^3):                 2.3025
# Tool:                             VASP
# Pseudopotential:                  PAW
# Note:                             ENCUT=400eV, k-spacing_relax=0.20/Angstrom, k-spacing_bandgap=0.15/Angstrom
# Created by:                       C.Kim, T.D.Huan, S.Krishnan, R. Ramprasad