data_1
_audit_creation_method   'Generated by vasp2cif'
_cell_length_a    5.99461637822
_cell_length_b    6.0062325509
_cell_length_c    5.89624854972
_cell_angle_alpha    83.5533458492
_cell_angle_beta    102.925280998
_cell_angle_gamma    90.9767519103

_symmetry_space_group_name_H-M    'P 1'
loop_
_atom_site_label
_atom_site_type_symbol
_atom_site_fract_x
_atom_site_fract_y
_atom_site_fract_z
_atom_site_occupancy
C1   C   0.589613691628962   0.469926214502550   0.423979842258376   1.0
C2   C   0.502812545495374   0.627246274653459   0.564891606179096   1.0
H3   H   0.281765465342872   0.660538988740569   0.782068819508602   1.0
H4   H   0.553480194437768   0.935714641793275   0.683563831565316   1.0
H5   H   0.599123838904092   0.554379984784404   0.252383146998305   1.0
H6   H   0.480731865027181   0.323624884289771   0.401381093832825   1.0
H7   H   0.762882547010960   0.413753030373975   0.514329066422043   1.0
H8   H   0.716418582424453   0.877249888996850   0.488713881668367   1.0
H9   H   0.278352441716990   0.404761668092760   0.669739161102150   1.0
Cl10   Cl   0.079075754813452   0.075560586916581   0.562432124191048   1.0
Cl11   Cl   0.041922495846201   0.645262453421765   0.086803850233800   1.0
Cl12   Cl   0.610880891237080   0.096042474014375   0.023798578730585   1.0
N13   N   0.348343037896100   0.559187933299583   0.686107856225981   1.0
N14   N   0.585854874584911   0.832941397537219   0.567874544220572   1.0
Sn15   Sn   0.057441773633592   0.084059578582853   0.091792596862895   1.0




# HOIP entry ID:                    0595
# Khazana ID:                       2445
# Organic cation source:            C.C.Stoumpos et al., J. Am. Chem. Soc. 137, 6804 (2015)
# Label:                            Acetamidinium Tin Chloride
# Material class:                   Hybrid organic-inorganic perovskite ( MC_ino )
# Geometry class:                   Bulk crystalline materials ( GC_cry )
# Organic cation chemical formula:  CH3C(NH2)2
# Number of atom types:             5
# Total number of atoms:            15
# Atom types:                       C H N  Sn Cl
# Number of each atom:              2 7 2  1 3
# Bandgap, HSE06 (eV):              3.0364
# Bandgap, GGA (eV):                2.267
# Kpoint for VBM:                   0.5, 0.5, 0.5
# Kpoint for CBM:                   0.5, 0.5, 0.5
# Dielectric constant, electronic:  3.5618
# Dielectric constant, ionic:       8.3385
# Dielectric constant, total:       11.9002
# Refractive index:                 1.8873
# Atomization energy (eV/atom):     -4.6822
# Relative energy1 (eV/atom):       0.0509
# Relative energy2 (eV/atom):       0.3195
# Volume of the unit cell (A^3):    205.6
# Density (g/cm^3):                 2.2951
# Tool:                             VASP
# Pseudopotential:                  PAW
# Note:                             ENCUT=400eV, k-spacing_relax=0.20/Angstrom, k-spacing_bandgap=0.15/Angstrom
# Created by:                       C.Kim, T.D.Huan, S.Krishnan, R. Ramprasad