data_1
_audit_creation_method   'Generated by vasp2cif'
_cell_length_a    6.00236983208
_cell_length_b    4.2029631074
_cell_length_c    8.15821221511
_cell_angle_alpha    89.4698093788
_cell_angle_beta    96.1122955222
_cell_angle_gamma    102.36060065

_symmetry_space_group_name_H-M    'P 1'
loop_
_atom_site_label
_atom_site_type_symbol
_atom_site_fract_x
_atom_site_fract_y
_atom_site_fract_z
_atom_site_occupancy
C1   C   0.400534837260707   0.867214591617945   0.609974389616092   1.0
C2   C   0.541194641889291   0.825684298922440   0.473814077715382   1.0
H3   H   0.379037616077717   0.095310484324280   0.313204113108924   1.0
H4   H   0.591699173400954   0.936615156823365   0.232944097417068   1.0
H5   H   0.303025879236103   0.628783446285169   0.642979020152943   1.0
H6   H   0.512176769166295   0.971582457343601   0.719732312085966   1.0
H7   H   0.280582712905556   0.022212958218439   0.572174519736450   1.0
H8   H   0.801007730326084   0.612603300441656   0.411127724970598   1.0
H9   H   0.736732792986167   0.556209690705771   0.611867539602301   1.0
Cl10   Cl   0.590389597200989   0.541334106660159   0.011401903429075   1.0
Cl11   Cl   0.043059549170401   0.265878017196393   0.282699650313191   1.0
Cl12   Cl   0.979460080851005   0.231218646787987   0.775820783286179   1.0
N13   N   0.503424511726571   0.963068044754927   0.330034528968632   1.0
N14   N   0.700250472455956   0.648531355112937   0.499058940229077   1.0
Sn15   Sn   0.038673635346193   0.688053444804886   0.016596399368169   1.0




# HOIP entry ID:                    0596
# Khazana ID:                       2446
# Organic cation source:            C.C.Stoumpos et al., J. Am. Chem. Soc. 137, 6804 (2015)
# Label:                            Acetamidinium Tin Chloride
# Material class:                   Hybrid organic-inorganic perovskite ( MC_ino )
# Geometry class:                   Bulk crystalline materials ( GC_cry )
# Organic cation chemical formula:  CH3C(NH2)2
# Number of atom types:             5
# Total number of atoms:            15
# Atom types:                       C H N  Sn Cl
# Number of each atom:              2 7 2  1 3
# Bandgap, HSE06 (eV):              4.2073
# Bandgap, GGA (eV):                3.2485
# Kpoint for VBM:                   -0.4286, -0.15, 0.4
# Kpoint for CBM:                   0.5, 0, 0.5
# Dielectric constant, electronic:  3.3899
# Dielectric constant, ionic:       5.2863
# Dielectric constant, total:       8.6762
# Refractive index:                 1.8412
# Atomization energy (eV/atom):     -4.6818
# Relative energy1 (eV/atom):       0.0514
# Relative energy2 (eV/atom):       0.3199
# Volume of the unit cell (A^3):    199.88
# Density (g/cm^3):                 2.3608
# Tool:                             VASP
# Pseudopotential:                  PAW
# Note:                             ENCUT=400eV, k-spacing_relax=0.20/Angstrom, k-spacing_bandgap=0.15/Angstrom
# Created by:                       C.Kim, T.D.Huan, S.Krishnan, R. Ramprasad