data_1
_audit_creation_method   'Generated by vasp2cif'
_cell_length_a    8.13753399914
_cell_length_b    4.2093124283
_cell_length_c    6.00745923317
_cell_angle_alpha    102.421422035
_cell_angle_beta    83.8185912095
_cell_angle_gamma    90.5231099909

_symmetry_space_group_name_H-M    'P 1'
loop_
_atom_site_label
_atom_site_type_symbol
_atom_site_fract_x
_atom_site_fract_y
_atom_site_fract_z
_atom_site_occupancy
C1   C   0.391021306406906   0.799270480941864   0.373051403396509   1.0
C2   C   0.527392599695219   0.758611243430956   0.513726499046570   1.0
H3   H   0.688091455949809   0.029850999040910   0.352979074783704   1.0
H4   H   0.768361630488165   0.871937241409604   0.565579804139936   1.0
H5   H   0.357839656583877   0.560758807576143   0.276339078730167   1.0
H6   H   0.281003976175072   0.904506723438864   0.484537519325840   1.0
H7   H   0.429069576775397   0.952893327683455   0.252556775924646   1.0
H8   H   0.590155129866055   0.546162313042650   0.773232374726682   1.0
H9   H   0.389302695530524   0.487943442707575   0.708090116295928   1.0
Cl10   Cl   0.989614469063405   0.473105487985762   0.563709566050058   1.0
Cl11   Cl   0.717700958310829   0.198684038706311   0.016631818983853   1.0
Cl12   Cl   0.225688523699816   0.163252124987743   0.952323662413100   1.0
N13   N   0.671278230373844   0.897154313914292   0.476782853709437   1.0
N14   N   0.502228082112865   0.581053007209889   0.672131940069036   1.0
Sn15   Sn   0.984441708968220   0.619356447923892   0.011707512404484   1.0




# HOIP entry ID:                    0597
# Khazana ID:                       2447
# Organic cation source:            C.C.Stoumpos et al., J. Am. Chem. Soc. 137, 6804 (2015)
# Label:                            Acetamidinium Tin Chloride
# Material class:                   Hybrid organic-inorganic perovskite ( MC_ino )
# Geometry class:                   Bulk crystalline materials ( GC_cry )
# Organic cation chemical formula:  CH3C(NH2)2
# Number of atom types:             5
# Total number of atoms:            15
# Atom types:                       C H N  Sn Cl
# Number of each atom:              2 7 2  1 3
# Bandgap, HSE06 (eV):              4.2103
# Bandgap, GGA (eV):                3.2503
# Kpoint for VBM:                   0.5, 0.2, 0.5
# Kpoint for CBM:                   0.5, 0, 0.5
# Dielectric constant, electronic:  3.3895
# Dielectric constant, ionic:       5.4779
# Dielectric constant, total:       8.8674
# Refractive index:                 1.8411
# Atomization energy (eV/atom):     -4.6817
# Relative energy1 (eV/atom):       0.0514
# Relative energy2 (eV/atom):       0.32
# Volume of the unit cell (A^3):    199.77
# Density (g/cm^3):                 2.3621
# Tool:                             VASP
# Pseudopotential:                  PAW
# Note:                             ENCUT=400eV, k-spacing_relax=0.20/Angstrom, k-spacing_bandgap=0.15/Angstrom
# Created by:                       C.Kim, T.D.Huan, S.Krishnan, R. Ramprasad