data_1
_audit_creation_method   'Generated by vasp2cif'
_cell_length_a    5.97984922108
_cell_length_b    4.11798715508
_cell_length_c    8.95919968342
_cell_angle_alpha    109.178409766
_cell_angle_beta    80.4088840078
_cell_angle_gamma    91.9707814762

_symmetry_space_group_name_H-M    'P 1'
loop_
_atom_site_label
_atom_site_type_symbol
_atom_site_fract_x
_atom_site_fract_y
_atom_site_fract_z
_atom_site_occupancy
C1   C   0.474236715641602   0.543530602316288   0.650508034123575   1.0
C2   C   0.472087450096957   0.316029699533459   0.482272564045296   1.0
H3   H   0.326827145429334   0.235141810776987   0.280815878699713   1.0
H4   H   0.204428600819199   0.564561002747290   0.451082826648964   1.0
H5   H   0.447762246702943   0.391590501929613   0.731144998404957   1.0
H6   H   0.640277060675629   0.660630447805190   0.659699439399589   1.0
H7   H   0.344789846404893   0.746395343637857   0.687190170292062   1.0
H8   H   0.630128296050316   0.896881214094890   0.305121607847809   1.0
H9   H   0.743713707272242   0.034145012684512   0.483053841420080   1.0
Cl10   Cl   0.514833319715976   0.775336376045345   0.038319252354192   1.0
Cl11   Cl   0.962206729820743   0.432460160668214   0.186214696343192   1.0
Cl12   Cl   0.964666039411767   0.082987021493373   0.690135233698065   1.0
N13   N   0.324803304031562   0.375395830666029   0.398292035800040   1.0
N14   N   0.621438911059734   0.056794854668560   0.419989550600299   1.0
Sn15   Sn   0.957050626867058   0.754260120932393   0.954799870322049   1.0




# HOIP entry ID:                    0598
# Khazana ID:                       2448
# Organic cation source:            C.C.Stoumpos et al., J. Am. Chem. Soc. 137, 6804 (2015)
# Label:                            Acetamidinium Tin Chloride
# Material class:                   Hybrid organic-inorganic perovskite ( MC_ino )
# Geometry class:                   Bulk crystalline materials ( GC_cry )
# Organic cation chemical formula:  CH3C(NH2)2
# Number of atom types:             5
# Total number of atoms:            15
# Atom types:                       C H N  Sn Cl
# Number of each atom:              2 7 2  1 3
# Bandgap, HSE06 (eV):              4.1498
# Bandgap, GGA (eV):                3.2093
# Kpoint for VBM:                   0.5, 0.2, 0.1667
# Kpoint for CBM:                   0.3333, 0, 0.5
# Dielectric constant, electronic:  3.3307
# Dielectric constant, ionic:       9.6511
# Dielectric constant, total:       12.9818
# Refractive index:                 1.825
# Atomization energy (eV/atom):     -4.6738
# Relative energy1 (eV/atom):       0.0593
# Relative energy2 (eV/atom):       0.3279
# Volume of the unit cell (A^3):    205.41
# Density (g/cm^3):                 2.2972
# Tool:                             VASP
# Pseudopotential:                  PAW
# Note:                             ENCUT=400eV, k-spacing_relax=0.20/Angstrom, k-spacing_bandgap=0.15/Angstrom
# Created by:                       C.Kim, T.D.Huan, S.Krishnan, R. Ramprasad