data_1
_audit_creation_method   'Generated by vasp2cif'
_cell_length_a    5.71505039197
_cell_length_b    5.63179082788
_cell_length_c    5.75915126404
_cell_angle_alpha    90.0467667444
_cell_angle_beta    95.4672284879
_cell_angle_gamma    89.9056067021

_symmetry_space_group_name_H-M    'P 1'
loop_
_atom_site_label
_atom_site_type_symbol
_atom_site_fract_x
_atom_site_fract_y
_atom_site_fract_z
_atom_site_occupancy
Cl1   Cl   0.395916340099930   0.998798471605163   0.044908466881026   1.0
Cl2   Cl   0.862436435189828   0.999601161729622   0.522652425622255   1.0
Cl3   Cl   0.891715978666362   0.499431992197835   0.981410126924168   1.0
H4   H   0.500556142445397   0.499548547667672   0.245734535761706   1.0
H5   H   0.649311019426889   0.351827214577980   0.462071944628285   1.0
H6   H   0.645909298852125   0.650317165148273   0.461922518115408   1.0
H7   H   0.231031248362143   0.336382509948649   0.512104471738859   1.0
H8   H   0.389676180272808   0.499366511013157   0.742934864776835   1.0
H9   H   0.225711091293647   0.655244276720254   0.510361915711535   1.0
C10   C   0.329979384073795   0.497562304911604   0.557800630045399   1.0
Sn11   Sn   0.919492201620656   0.999448595192383   0.005288869342038   1.0
N12   N   0.545154679696310   0.500031249287439   0.423009230451541   1.0




# HOIP entry ID:                    0599
# Khazana ID:                       2449
# Organic cation source:            T.D.Huan et al., Phys. Rev. B 93,094105(2016)
# Label:                            Methylammonium Tin Chloride
# Material class:                   Hybrid organic-inorganic perovskite ( MC_ino )
# Geometry class:                   Bulk crystalline materials ( GC_cry )
# Organic cation chemical formula:  CH3NH3
# Number of atom types:             5
# Total number of atoms:            12
# Atom types:                       C H N  Sn Cl
# Number of each atom:              1 6 1  1 3
# Bandgap, HSE06 (eV):              2.1551
# Bandgap, GGA (eV):                1.4646
# Kpoint for VBM:                   0.5, 0.5, 0.5
# Kpoint for CBM:                   0.4737, 0.4737, 0.4737
# Dielectric constant, electronic:  4.055
# Dielectric constant, ionic:       20.4992
# Dielectric constant, total:       24.5542
# Refractive index:                 2.0137
# Atomization energy (eV/atom):     -4.2138
# Relative energy1 (eV/atom):       0.0027
# Relative energy2 (eV/atom):       0.3384
# Volume of the unit cell (A^3):    184.52
# Density (g/cm^3):                 2.3141
# Tool:                             VASP
# Pseudopotential:                  PAW
# Note:                             ENCUT=400eV, k-spacing_relax=0.20/Angstrom, k-spacing_bandgap=0.15/Angstrom
# Created by:                       C.Kim, T.D.Huan, S.Krishnan, R. Ramprasad