data_1
_audit_creation_method   'Generated by vasp2cif'
_cell_length_a    5.70716436254
_cell_length_b    5.66996671633
_cell_length_c    5.77402605594
_cell_angle_alpha    87.0868783196
_cell_angle_beta    83.8822565927
_cell_angle_gamma    92.603325912

_symmetry_space_group_name_H-M    'P 1'
loop_
_atom_site_label
_atom_site_type_symbol
_atom_site_fract_x
_atom_site_fract_y
_atom_site_fract_z
_atom_site_occupancy
Cl1   Cl   0.030269877637183   0.026950970937486   0.600188029877943   1.0
Cl2   Cl   0.505242089037973   0.986879178973146   0.122393162008727   1.0
Cl3   Cl   0.961749515977705   0.508949252569971   0.116405639674649   1.0
H4   H   0.285611075296254   0.354906281313727   0.484482877648497   1.0
H5   H   0.549614746074932   0.404635365382589   0.329772133629137   1.0
H6   H   0.375892291558902   0.628390941775762   0.371297819262880   1.0
H7   H   0.599067311260923   0.360427945815415   0.742019212416357   1.0
H8   H   0.687530889520277   0.653628856238352   0.625558312867083   1.0
H9   H   0.405801438549037   0.597561201534021   0.792367915990278   1.0
C10   C   0.539431919810766   0.525830634892686   0.670414926130244   1.0
Sn11   Sn   0.988842743197546   0.002862864446861   0.076274335263254   1.0
N12   N   0.428936102078468   0.475126506120013   0.449835635230998   1.0




# HOIP entry ID:                    0600
# Khazana ID:                       2450
# Organic cation source:            T.D.Huan et al., Phys. Rev. B 93,094105(2016)
# Label:                            Methylammonium Tin Chloride
# Material class:                   Hybrid organic-inorganic perovskite ( MC_ino )
# Geometry class:                   Bulk crystalline materials ( GC_cry )
# Organic cation chemical formula:  CH3NH3
# Number of atom types:             5
# Total number of atoms:            12
# Atom types:                       C H N  Sn Cl
# Number of each atom:              1 6 1  1 3
# Bandgap, HSE06 (eV):              2.2685
# Bandgap, GGA (eV):                1.6094
# Kpoint for VBM:                   0.5, 0.5, 0.5
# Kpoint for CBM:                   0.5, 0.5, 0.5
# Dielectric constant, electronic:  4.0159
# Dielectric constant, ionic:       23.5204
# Dielectric constant, total:       27.5363
# Refractive index:                 2.004
# Atomization energy (eV/atom):     -4.2134
# Relative energy1 (eV/atom):       0.0031
# Relative energy2 (eV/atom):       0.3388
# Volume of the unit cell (A^3):    185.3
# Density (g/cm^3):                 2.3043
# Tool:                             VASP
# Pseudopotential:                  PAW
# Note:                             ENCUT=400eV, k-spacing_relax=0.20/Angstrom, k-spacing_bandgap=0.15/Angstrom
# Created by:                       C.Kim, T.D.Huan, S.Krishnan, R. Ramprasad