data_1
_audit_creation_method   'Generated by vasp2cif'
_cell_length_a    5.84585527052
_cell_length_b    4.23218943318
_cell_length_c    7.521735657
_cell_angle_alpha    99.9051817004
_cell_angle_beta    79.4737724411
_cell_angle_gamma    93.3776908613

_symmetry_space_group_name_H-M    'P 1'
loop_
_atom_site_label
_atom_site_type_symbol
_atom_site_fract_x
_atom_site_fract_y
_atom_site_fract_z
_atom_site_occupancy
Cl1   Cl   0.983587719972050   0.621653444339834   0.729343117357956   1.0
Cl2   Cl   0.527157650736541   0.229770560327147   0.088952381779379   1.0
Cl3   Cl   0.974939019863463   0.783143910002373   0.270686684685529   1.0
H4   H   0.287572510489483   0.744562769988008   0.501431292095681   1.0
H5   H   0.566709331671618   0.694741795542626   0.389872966514495   1.0
H6   H   0.406235495117855   0.958881486453109   0.338033350146652   1.0
H7   H   0.560523555243428   0.989779105559343   0.699814115800301   1.0
H8   H   0.681175070950530   0.224764640905896   0.529222238054082   1.0
H9   H   0.385124231545760   0.279963960426116   0.645466446686434   1.0
C10   C   0.522919514555859   0.108628121741738   0.591405940618003   1.0
Sn11   Sn   0.992294803397236   0.211886891892810   0.005274989613447   1.0
N12   N   0.439111096456195   0.858723312821070   0.446816476648102   1.0




# HOIP entry ID:                    0601
# Khazana ID:                       2451
# Organic cation source:            T.D.Huan et al., Phys. Rev. B 93,094105(2016)
# Label:                            Methylammonium Tin Chloride
# Material class:                   Hybrid organic-inorganic perovskite ( MC_ino )
# Geometry class:                   Bulk crystalline materials ( GC_cry )
# Organic cation chemical formula:  CH3NH3
# Number of atom types:             5
# Total number of atoms:            12
# Atom types:                       C H N  Sn Cl
# Number of each atom:              1 6 1  1 3
# Bandgap, HSE06 (eV):              3.8448
# Bandgap, GGA (eV):                2.9588
# Kpoint for VBM:                   0.5, -0.1667, 0.3333
# Kpoint for CBM:                   -0.2857, 0, 0.4167
# Dielectric constant, electronic:  3.4435
# Dielectric constant, ionic:       17.5244
# Dielectric constant, total:       20.9679
# Refractive index:                 1.8557
# Atomization energy (eV/atom):     -4.2049
# Relative energy1 (eV/atom):       0.0116
# Relative energy2 (eV/atom):       0.3473
# Volume of the unit cell (A^3):    180.16
# Density (g/cm^3):                 2.3701
# Tool:                             VASP
# Pseudopotential:                  PAW
# Note:                             ENCUT=400eV, k-spacing_relax=0.20/Angstrom, k-spacing_bandgap=0.15/Angstrom
# Created by:                       C.Kim, T.D.Huan, S.Krishnan, R. Ramprasad