data_1
_audit_creation_method   'Generated by vasp2cif'
_cell_length_a    6.06519825555
_cell_length_b    4.26195991659
_cell_length_c    7.71073860442
_cell_angle_alpha    106.569604804
_cell_angle_beta    85.3501561155
_cell_angle_gamma    73.5280790758

_symmetry_space_group_name_H-M    'P 1'
loop_
_atom_site_label
_atom_site_type_symbol
_atom_site_fract_x
_atom_site_fract_y
_atom_site_fract_z
_atom_site_occupancy
Cl1   Cl   0.947463199055917   0.780632908812414   0.258871036581098   1.0
Cl2   Cl   0.445121439823616   0.903657264916554   0.965249508717939   1.0
Cl3   Cl   0.080242749763173   0.434955653387220   0.706855956096021   1.0
H4   H   0.728377845921656   0.282685516994086   0.473936945528429   1.0
H5   H   0.554060608803198   0.621744735461959   0.653536058572548   1.0
H6   H   0.740404295100880   0.670978765791929   0.498181287823471   1.0
H7   H   0.343091565866892   0.417065098009139   0.398229763637680   1.0
H8   H   0.328150698483689   0.857683576100662   0.449648947912209   1.0
H9   H   0.528633565368210   0.537401524692868   0.255247277765953   1.0
C10   C   0.442314665084879   0.591321742955060   0.394607232546640   1.0
Sn11   Sn   0.995046421849231   0.086395824664294   0.971643279726010   1.0
N12   N   0.625472944878574   0.539607388213874   0.514992705092034   1.0




# HOIP entry ID:                    0602
# Khazana ID:                       2452
# Organic cation source:            T.D.Huan et al., Phys. Rev. B 93,094105(2016)
# Label:                            Methylammonium Tin Chloride
# Material class:                   Hybrid organic-inorganic perovskite ( MC_ino )
# Geometry class:                   Bulk crystalline materials ( GC_cry )
# Organic cation chemical formula:  CH3NH3
# Number of atom types:             5
# Total number of atoms:            12
# Atom types:                       C H N  Sn Cl
# Number of each atom:              1 6 1  1 3
# Bandgap, HSE06 (eV):              4.1051
# Bandgap, GGA (eV):                3.1758
# Kpoint for VBM:                   0.4167, -0.25, 0.0833
# Kpoint for CBM:                   0.5, 0, 0.5
# Dielectric constant, electronic:  3.3633
# Dielectric constant, ionic:       15.6496
# Dielectric constant, total:       19.0129
# Refractive index:                 1.8339
# Atomization energy (eV/atom):     -4.202
# Relative energy1 (eV/atom):       0.0146
# Relative energy2 (eV/atom):       0.3502
# Volume of the unit cell (A^3):    180.34
# Density (g/cm^3):                 2.3677
# Tool:                             VASP
# Pseudopotential:                  PAW
# Note:                             ENCUT=400eV, k-spacing_relax=0.20/Angstrom, k-spacing_bandgap=0.15/Angstrom
# Created by:                       C.Kim, T.D.Huan, S.Krishnan, R. Ramprasad