data_1
_audit_creation_method   'Generated by vasp2cif'
_cell_length_a    7.19120173686
_cell_length_b    4.53789421229
_cell_length_c    7.26149006626
_cell_angle_alpha    51.5013765981
_cell_angle_beta    100.109636989
_cell_angle_gamma    103.457841659

_symmetry_space_group_name_H-M    'P 1'
loop_
_atom_site_label
_atom_site_type_symbol
_atom_site_fract_x
_atom_site_fract_y
_atom_site_fract_z
_atom_site_occupancy
Cl1   Cl   0.275233700754255   0.035625251858905   0.037193167447102   1.0
Cl2   Cl   0.920289950822201   0.810295041047854   0.583619929120132   1.0
Cl3   Cl   0.727160561331953   0.797938473493453   0.063488157431953   1.0
H4   H   0.625053294553253   0.489610692518793   0.554990059049335   1.0
H5   H   0.418749187347668   0.611213326025423   0.395655557024088   1.0
H6   H   0.419203338310906   0.313638223885729   0.694961249049443   1.0
H7   H   0.511045923330629   0.147236812961585   0.388551600026984   1.0
H8   H   0.522609616311971   0.834842599207154   0.705605032691235   1.0
H9   H   0.296689264127981   0.952809634041324   0.549367604552571   1.0
C10   C   0.450103497727880   0.052384961945628   0.547614634512297   1.0
Sn11   Sn   0.983771077011047   0.347897245062008   0.057325269662213   1.0
N12   N   0.480390588370304   0.391207737952111   0.548277739432617   1.0




# HOIP entry ID:                    0604
# Khazana ID:                       2454
# Organic cation source:            T.D.Huan et al., Phys. Rev. B 93,094105(2016)
# Label:                            Methylammonium Tin Chloride
# Material class:                   Hybrid organic-inorganic perovskite ( MC_ino )
# Geometry class:                   Bulk crystalline materials ( GC_cry )
# Organic cation chemical formula:  CH3NH3
# Number of atom types:             5
# Total number of atoms:            12
# Atom types:                       C H N  Sn Cl
# Number of each atom:              1 6 1  1 3
# Bandgap, HSE06 (eV):              3.4137
# Bandgap, GGA (eV):                2.5748
# Kpoint for VBM:                   0.2, -0.35, 0.1875
# Kpoint for CBM:                   0.5, 0, 0.375
# Dielectric constant, electronic:  3.5504
# Dielectric constant, ionic:       11.9468
# Dielectric constant, total:       15.4972
# Refractive index:                 1.8842
# Atomization energy (eV/atom):     -4.2036
# Relative energy1 (eV/atom):       0.013
# Relative energy2 (eV/atom):       0.3487
# Volume of the unit cell (A^3):    180.21
# Density (g/cm^3):                 2.3694
# Tool:                             VASP
# Pseudopotential:                  PAW
# Note:                             ENCUT=400eV, k-spacing_relax=0.20/Angstrom, k-spacing_bandgap=0.15/Angstrom
# Created by:                       C.Kim, T.D.Huan, S.Krishnan, R. Ramprasad