data_1
_audit_creation_method   'Generated by vasp2cif'
_cell_length_a    5.84553607493
_cell_length_b    5.86428900353
_cell_length_c    5.86382222898
_cell_angle_alpha    97.8880477824
_cell_angle_beta    96.5798932916
_cell_angle_gamma    96.3540877212

_symmetry_space_group_name_H-M    'P 1'
loop_
_atom_site_label
_atom_site_type_symbol
_atom_site_fract_x
_atom_site_fract_y
_atom_site_fract_z
_atom_site_occupancy
C1   C   0.298704264256656   0.287709133219685   0.333181518830230   1.0
H2   H   0.077041938600743   0.262279140650662   0.579308885982982   1.0
H3   H   0.073235846552301   0.532242835878925   0.315102771300680   1.0
H4   H   0.556125694196318   0.076745307657227   0.313955102575200   1.0
H5   H   0.553587514802103   0.275074858892090   0.119225059398950   1.0
H6   H   0.275641524985005   0.538255596929453   0.121120022320703   1.0
H7   H   0.280849065866597   0.069020042318762   0.578484601244114   1.0
Cl8   Cl   0.760767246548717   0.757530680200460   0.374149769644006   1.0
Cl9   Cl   0.764149365618692   0.327269718509292   0.801194000731172   1.0
Cl10   Cl   0.325856859836449   0.758421206676118   0.807294348433281   1.0
N11   N   0.206644105022072   0.193529184586780   0.503215867163760   1.0
N12   N   0.203886270251196   0.459712259993459   0.244634784219315   1.0
N13   N   0.480500786892378   0.205031145744307   0.246907467444970   1.0
Sn14   Sn   0.791109516570806   0.789368888742743   0.836285800710620   1.0




# HOIP entry ID:                    0605
# Khazana ID:                       2455
# Organic cation source:            B.Saparov et al., Chem. Rev. 116, 4558 (2016)
# Label:                            Guanidinium Tin Chloride
# Material class:                   Hybrid organic-inorganic perovskite ( MC_ino )
# Geometry class:                   Bulk crystalline materials ( GC_cry )
# Organic cation chemical formula:  C(NH2)3
# Number of atom types:             5
# Total number of atoms:            14
# Atom types:                       C H N  Sn Cl
# Number of each atom:              1 6 3  1 3
# Bandgap, HSE06 (eV):              3.3492
# Bandgap, GGA (eV):                2.5824
# Kpoint for VBM:                   0.5, 0.5, 0.5
# Kpoint for CBM:                   0.5, 0.5, 0.5
# Dielectric constant, electronic:  3.7154
# Dielectric constant, ionic:       8.6272
# Dielectric constant, total:       12.3426
# Refractive index:                 1.9275
# Atomization energy (eV/atom):     -4.7263
# Relative energy1 (eV/atom):       0.2338
# Relative energy2 (eV/atom):       0.5216
# Volume of the unit cell (A^3):    196.16
# Density (g/cm^3):                 2.4139
# Tool:                             VASP
# Pseudopotential:                  PAW
# Note:                             ENCUT=400eV, k-spacing_relax=0.20/Angstrom, k-spacing_bandgap=0.15/Angstrom
# Created by:                       C.Kim, T.D.Huan, S.Krishnan, R. Ramprasad