data_1
_audit_creation_method   'Generated by vasp2cif'
_cell_length_a    9.01221086603
_cell_length_b    4.10211310355
_cell_length_c    5.96310725049
_cell_angle_alpha    77.1169969874
_cell_angle_beta    96.6036493057
_cell_angle_gamma    117.104658641

_symmetry_space_group_name_H-M    'P 1'
loop_
_atom_site_label
_atom_site_type_symbol
_atom_site_fract_x
_atom_site_fract_y
_atom_site_fract_z
_atom_site_occupancy
C1   C   0.467371370444916   0.204310114083242   0.527433775571872   1.0
H2   H   0.365623208898896   0.349007282756389   0.759237734585120   1.0
H3   H   0.579729198020388   0.574932280293936   0.748436206014674   1.0
H4   H   0.611352279622608   0.129529414435964   0.317269217510407   1.0
H5   H   0.721524042842120   0.440573840923662   0.501337409710416   1.0
H6   H   0.212471833982903   0.915012757992287   0.518932748015864   1.0
H7   H   0.315254229981747   0.817382817645736   0.331467743018649   1.0
Cl8   Cl   0.968053471687597   0.982229941658268   0.580012729331337   1.0
Cl9   Cl   0.228486896824322   0.543405640714646   0.008826846947507   1.0
Cl10   Cl   0.717502463392570   0.035797418522087   0.005482747274236   1.0
N11   N   0.470942055041398   0.396074368493203   0.684675834616264   1.0
N12   N   0.321101103895700   0.958831970316893   0.454772949064925   1.0
N13   N   0.610350661749202   0.258059169722571   0.444007770273039   1.0
Sn14   Sn   0.971977183615792   0.823602982441287   0.036116288065685   1.0




# HOIP entry ID:                    0606
# Khazana ID:                       2456
# Organic cation source:            B.Saparov et al., Chem. Rev. 116, 4558 (2016)
# Label:                            Guanidinium Tin Chloride
# Material class:                   Hybrid organic-inorganic perovskite ( MC_ino )
# Geometry class:                   Bulk crystalline materials ( GC_cry )
# Organic cation chemical formula:  C(NH2)3
# Number of atom types:             5
# Total number of atoms:            14
# Atom types:                       C H N  Sn Cl
# Number of each atom:              1 6 3  1 3
# Bandgap, HSE06 (eV):              4.007
# Bandgap, GGA (eV):                3.1334
# Kpoint for VBM:                   -0.375, -0.0909, 0.4286
# Kpoint for CBM:                   0, 0.0455, 0.5
# Dielectric constant, electronic:  3.5063
# Dielectric constant, ionic:       9.1812
# Dielectric constant, total:       12.6875
# Refractive index:                 1.8725
# Atomization energy (eV/atom):     -4.7248
# Relative energy1 (eV/atom):       0.2353
# Relative energy2 (eV/atom):       0.523
# Volume of the unit cell (A^3):    191.28
# Density (g/cm^3):                 2.4755
# Tool:                             VASP
# Pseudopotential:                  PAW
# Note:                             ENCUT=400eV, k-spacing_relax=0.20/Angstrom, k-spacing_bandgap=0.15/Angstrom
# Created by:                       C.Kim, T.D.Huan, S.Krishnan, R. Ramprasad