data_1
_audit_creation_method   'Generated by vasp2cif'
_cell_length_a    5.62675677545
_cell_length_b    5.64861762358
_cell_length_c    5.56129871013
_cell_angle_alpha    109.630910907
_cell_angle_beta    93.5783156184
_cell_angle_gamma    81.0785195603

_symmetry_space_group_name_H-M    'P 1'
loop_
_atom_site_label
_atom_site_type_symbol
_atom_site_fract_x
_atom_site_fract_y
_atom_site_fract_z
_atom_site_occupancy
Cl1   Cl   0.082167481369979   0.032035294430777   0.511224930002960   1.0
Cl2   Cl   0.538623990381339   0.978551899375852   0.009035814421352   1.0
Cl3   Cl   0.970946787826591   0.424159537211168   0.152696863895308   1.0
H4   H   0.324201931058063   0.496175562314505   0.357111813050480   1.0
H5   H   0.633578513818556   0.448021872803849   0.362195125259810   1.0
H6   H   0.480054667851000   0.707412512705140   0.579233535883333   1.0
H7   H   0.366193254221848   0.260549637852804   0.587656513139166   1.0
Sn8   Sn   0.021441923628487   0.899862280712313   0.001518239082593   1.0
N9   N   0.478775298751934   0.517963414035016   0.472165655435624   1.0
O10   O   0.477756151092180   0.389787988558553   0.659151509829300   1.0




# HOIP entry ID:                    0607
# Khazana ID:                       2457
# Organic cation source:            G.Kieslich et al., Chem. Sci. 6, 3430 (2015)
# Label:                            Hydroxylammonium Tin Chloride
# Material class:                   Hybrid organic-inorganic perovskite ( MC_ino )
# Geometry class:                   Bulk crystalline materials ( GC_cry )
# Organic cation chemical formula:  OHNH3
# Number of atom types:             5
# Total number of atoms:            10
# Atom types:                        H N O Sn Cl
# Number of each atom:               4 1  1 3
# Bandgap, HSE06 (eV):              3.7949
# Bandgap, GGA (eV):                2.9737
# Kpoint for VBM:                   0.5, -0.3571, 0.375
# Kpoint for CBM:                   -0.4286, -0.2857, 0.4375
# Dielectric constant, electronic:  3.8247
# Dielectric constant, ionic:       16.8535
# Dielectric constant, total:       20.6782
# Refractive index:                 1.9557
# Atomization energy (eV/atom):     -3.9336
# Relative energy1 (eV/atom):       0.1888
# Relative energy2 (eV/atom):       0.5916
# Volume of the unit cell (A^3):    164.46
# Density (g/cm^3):                 2.6162
# Tool:                             VASP
# Pseudopotential:                  PAW
# Note:                             ENCUT=400eV, k-spacing_relax=0.20/Angstrom, k-spacing_bandgap=0.15/Angstrom
# Created by:                       C.Kim, T.D.Huan, S.Krishnan, R. Ramprasad