data_1
_audit_creation_method   'Generated by vasp2cif'
_cell_length_a    5.72784574419
_cell_length_b    4.26839143277
_cell_length_c    7.02752807153
_cell_angle_alpha    107.934823042
_cell_angle_beta    84.1936554332
_cell_angle_gamma    92.3615737464

_symmetry_space_group_name_H-M    'P 1'
loop_
_atom_site_label
_atom_site_type_symbol
_atom_site_fract_x
_atom_site_fract_y
_atom_site_fract_z
_atom_site_occupancy
Cl1   Cl   0.972567816304803   0.171752926346827   0.709110788303121   1.0
Cl2   Cl   0.512910654273071   0.816436753339360   0.039797475766022   1.0
Cl3   Cl   0.951677043833932   0.462856318605596   0.295387551676939   1.0
H4   H   0.509474525477877   0.906716186429442   0.365427275004443   1.0
H5   H   0.645560705888634   0.944082773720659   0.577472625744768   1.0
H6   H   0.365947404500915   0.084590170706392   0.598685376572156   1.0
H7   H   0.252221816698892   0.552139003483070   0.447922789417042   1.0
Sn8   Sn   0.989288442573994   0.817491505471104   0.001537164108846   1.0
N9   N   0.485624815841682   0.906566139533830   0.515214492767797   1.0
O10   O   0.396246774606254   0.588578222363608   0.523224460638730   1.0




# HOIP entry ID:                    0608
# Khazana ID:                       2458
# Organic cation source:            G.Kieslich et al., Chem. Sci. 6, 3430 (2015)
# Label:                            Hydroxylammonium Tin Chloride
# Material class:                   Hybrid organic-inorganic perovskite ( MC_ino )
# Geometry class:                   Bulk crystalline materials ( GC_cry )
# Organic cation chemical formula:  OHNH3
# Number of atom types:             5
# Total number of atoms:            10
# Atom types:                        H N O Sn Cl
# Number of each atom:               4 1  1 3
# Bandgap, HSE06 (eV):              3.3424
# Bandgap, GGA (eV):                2.5228
# Kpoint for VBM:                   0.5, -0.2778, 0.0714
# Kpoint for CBM:                   0.4286, 0, 0.4286
# Dielectric constant, electronic:  3.833
# Dielectric constant, ionic:       16.3575
# Dielectric constant, total:       20.1905
# Refractive index:                 1.9578
# Atomization energy (eV/atom):     -3.9547
# Relative energy1 (eV/atom):       0.1677
# Relative energy2 (eV/atom):       0.5705
# Volume of the unit cell (A^3):    162.62
# Density (g/cm^3):                 2.6458
# Tool:                             VASP
# Pseudopotential:                  PAW
# Note:                             ENCUT=400eV, k-spacing_relax=0.20/Angstrom, k-spacing_bandgap=0.15/Angstrom
# Created by:                       C.Kim, T.D.Huan, S.Krishnan, R. Ramprasad