data_1
_audit_creation_method   'Generated by vasp2cif'
_cell_length_a    5.62416446157
_cell_length_b    4.08693110715
_cell_length_c    7.22582148869
_cell_angle_alpha    105.217288878
_cell_angle_beta    80.1514821134
_cell_angle_gamma    95.5786107633

_symmetry_space_group_name_H-M    'P 1'
loop_
_atom_site_label
_atom_site_type_symbol
_atom_site_fract_x
_atom_site_fract_y
_atom_site_fract_z
_atom_site_occupancy
Cl1   Cl   0.860273173462900   0.921554774708397   0.766302653790937   1.0
Cl2   Cl   0.315384801312803   0.574022669749048   0.942876124757341   1.0
Cl3   Cl   0.948963722737865   0.203037064664812   0.338514826962879   1.0
H4   H   0.433734327681037   0.180617871393018   0.506944881385650   1.0
H5   H   0.543129235409175   0.981386753470403   0.651771917985705   1.0
H6   H   0.236327809657844   0.995301501972023   0.663275595542927   1.0
H7   H   0.244629024847050   0.600395169891279   0.395978233216525   1.0
Sn8   Sn   0.846811896354481   0.554350027736746   0.063512695070621   1.0
N9   N   0.403619556006724   0.981679595134814   0.573386672432882   1.0
O10   O   0.412396452530203   0.658984571279454   0.426836398854583   1.0




# HOIP entry ID:                    0609
# Khazana ID:                       2459
# Organic cation source:            G.Kieslich et al., Chem. Sci. 6, 3430 (2015)
# Label:                            Hydroxylammonium Tin Chloride
# Material class:                   Hybrid organic-inorganic perovskite ( MC_ino )
# Geometry class:                   Bulk crystalline materials ( GC_cry )
# Organic cation chemical formula:  OHNH3
# Number of atom types:             5
# Total number of atoms:            10
# Atom types:                        H N O Sn Cl
# Number of each atom:               4 1  1 3
# Bandgap, HSE06 (eV):              3.9707
# Bandgap, GGA (eV):                3.0231
# Kpoint for VBM:                   0.5, 0, 0.5
# Kpoint for CBM:                   0.0714, 0, 0.5
# Dielectric constant, electronic:  3.7328
# Dielectric constant, ionic:       10.573
# Dielectric constant, total:       14.3057
# Refractive index:                 1.932
# Atomization energy (eV/atom):     -3.9518
# Relative energy1 (eV/atom):       0.1707
# Relative energy2 (eV/atom):       0.5735
# Volume of the unit cell (A^3):    157.67
# Density (g/cm^3):                 2.7289
# Tool:                             VASP
# Pseudopotential:                  PAW
# Note:                             ENCUT=400eV, k-spacing_relax=0.20/Angstrom, k-spacing_bandgap=0.15/Angstrom
# Created by:                       C.Kim, T.D.Huan, S.Krishnan, R. Ramprasad