data_1
_audit_creation_method   'Generated by vasp2cif'
_cell_length_a    7.06699494745
_cell_length_b    4.17988416674
_cell_length_c    5.60199406428
_cell_angle_alpha    85.5555170216
_cell_angle_beta    79.8456102082
_cell_angle_gamma    75.4942501939

_symmetry_space_group_name_H-M    'P 1'
loop_
_atom_site_label
_atom_site_type_symbol
_atom_site_fract_x
_atom_site_fract_y
_atom_site_fract_z
_atom_site_occupancy
Cl1   Cl   0.751873378843349   0.340715620229723   0.137874391123269   1.0
Cl2   Cl   0.174178176797632   0.701446091566538   0.769184447311233   1.0
Cl3   Cl   0.323160207428046   0.078624404509668   0.231883684202998   1.0
H4   H   0.395461663859500   0.051609044899898   0.701365750209163   1.0
H5   H   0.568742448088457   0.227226394607165   0.524689767868374   1.0
H6   H   0.539581273557943   0.231758892202066   0.834688884259869   1.0
H7   H   0.691258964660157   0.712369581330208   0.850453757747552   1.0
Sn8   Sn   0.044798491581027   0.692924353918173   0.245050757236861   1.0
N9   N   0.534077588999949   0.101562426810546   0.687527403385076   1.0
O10   O   0.683847806183891   0.790993189926162   0.678271156655626   1.0




# HOIP entry ID:                    0610
# Khazana ID:                       2460
# Organic cation source:            G.Kieslich et al., Chem. Sci. 6, 3430 (2015)
# Label:                            Hydroxylammonium Tin Chloride
# Material class:                   Hybrid organic-inorganic perovskite ( MC_ino )
# Geometry class:                   Bulk crystalline materials ( GC_cry )
# Organic cation chemical formula:  OHNH3
# Number of atom types:             5
# Total number of atoms:            10
# Atom types:                        H N O Sn Cl
# Number of each atom:               4 1  1 3
# Bandgap, HSE06 (eV):              3.8953
# Bandgap, GGA (eV):                2.9558
# Kpoint for VBM:                   0.5, 0, 0.5
# Kpoint for CBM:                   0.5, 0, 0.0714
# Dielectric constant, electronic:  3.7486
# Dielectric constant, ionic:       13.2329
# Dielectric constant, total:       16.9815
# Refractive index:                 1.9361
# Atomization energy (eV/atom):     -3.9491
# Relative energy1 (eV/atom):       0.1734
# Relative energy2 (eV/atom):       0.5762
# Volume of the unit cell (A^3):    157.6
# Density (g/cm^3):                 2.7301
# Tool:                             VASP
# Pseudopotential:                  PAW
# Note:                             ENCUT=400eV, k-spacing_relax=0.20/Angstrom, k-spacing_bandgap=0.15/Angstrom
# Created by:                       C.Kim, T.D.Huan, S.Krishnan, R. Ramprasad