data_1
_audit_creation_method   'Generated by vasp2cif'
_cell_length_a    5.81135229523
_cell_length_b    4.23379925392
_cell_length_c    6.83139438878
_cell_angle_alpha    106.411211814
_cell_angle_beta    86.7745496274
_cell_angle_gamma    87.2998612025

_symmetry_space_group_name_H-M    'P 1'
loop_
_atom_site_label
_atom_site_type_symbol
_atom_site_fract_x
_atom_site_fract_y
_atom_site_fract_z
_atom_site_occupancy
Cl1   Cl   0.830377343397849   0.107643042775130   0.806635108005281   1.0
Cl2   Cl   0.298355603520314   0.642379527813858   0.959341351299827   1.0
Cl3   Cl   0.006531076071894   0.355984557485769   0.372922587704878   1.0
H4   H   0.244646470241641   0.117484286580265   0.544013556121008   1.0
H5   H   0.503793923480067   0.109434268714317   0.655562570794778   1.0
H6   H   0.288569270037336   0.896823955876904   0.717105787690734   1.0
H7   H   0.323928266467952   0.580112625687811   0.379135976127912   1.0
Sn8   Sn   0.853059619096967   0.735021423854512   0.093034692399854   1.0
N9   N   0.363524952362674   0.978552099803998   0.599363211049223   1.0
O10   O   0.462123475323317   0.697704211407498   0.435255158806491   1.0




# HOIP entry ID:                    0611
# Khazana ID:                       2461
# Organic cation source:            G.Kieslich et al., Chem. Sci. 6, 3430 (2015)
# Label:                            Hydroxylammonium Tin Chloride
# Material class:                   Hybrid organic-inorganic perovskite ( MC_ino )
# Geometry class:                   Bulk crystalline materials ( GC_cry )
# Organic cation chemical formula:  OHNH3
# Number of atom types:             5
# Total number of atoms:            10
# Atom types:                        H N O Sn Cl
# Number of each atom:               4 1  1 3
# Bandgap, HSE06 (eV):              4.0721
# Bandgap, GGA (eV):                3.1334
# Kpoint for VBM:                   0.5, 0.0556, 0.5
# Kpoint for CBM:                   0, 0, 0.4286
# Dielectric constant, electronic:  3.6185
# Dielectric constant, ionic:       12.9352
# Dielectric constant, total:       16.5537
# Refractive index:                 1.9022
# Atomization energy (eV/atom):     -3.9512
# Relative energy1 (eV/atom):       0.1712
# Relative energy2 (eV/atom):       0.574
# Volume of the unit cell (A^3):    160.63
# Density (g/cm^3):                 2.6786
# Tool:                             VASP
# Pseudopotential:                  PAW
# Note:                             ENCUT=400eV, k-spacing_relax=0.20/Angstrom, k-spacing_bandgap=0.15/Angstrom
# Created by:                       C.Kim, T.D.Huan, S.Krishnan, R. Ramprasad