data_1
_audit_creation_method   'Generated by vasp2cif'
_cell_length_a    7.29148392543
_cell_length_b    4.09176436343
_cell_length_c    5.63745213488
_cell_angle_alpha    84.07379826
_cell_angle_beta    96.582285991
_cell_angle_gamma    72.7906003974

_symmetry_space_group_name_H-M    'P 1'
loop_
_atom_site_label
_atom_site_type_symbol
_atom_site_fract_x
_atom_site_fract_y
_atom_site_fract_z
_atom_site_occupancy
Cl1   Cl   0.298595413270370   0.023194347564377   0.917741832825946   1.0
Cl2   Cl   0.905040563484377   0.789202425457376   0.546110113992924   1.0
Cl3   Cl   0.725316370556222   0.311349229848467   0.998494866434861   1.0
H4   H   0.610572501005329   0.482529034220399   0.313578712912772   1.0
H5   H   0.627094070919675   0.482480283405181   0.620169975457806   1.0
H6   H   0.361007133675478   0.348746226404323   0.620210557701796   1.0
H7   H   0.466784475489526   0.822524801136410   0.425360678121038   1.0
Sn8   Sn   0.023055942295187   0.648550959931214   0.014770297253200   1.0
N9   N   0.534550630005711   0.558036756639119   0.455051714114077   1.0
O10   O   0.389312899297998   0.378145935393178   0.451391251185562   1.0




# HOIP entry ID:                    0612
# Khazana ID:                       2462
# Organic cation source:            G.Kieslich et al., Chem. Sci. 6, 3430 (2015)
# Label:                            Hydroxylammonium Tin Chloride
# Material class:                   Hybrid organic-inorganic perovskite ( MC_ino )
# Geometry class:                   Bulk crystalline materials ( GC_cry )
# Organic cation chemical formula:  OHNH3
# Number of atom types:             5
# Total number of atoms:            10
# Atom types:                        H N O Sn Cl
# Number of each atom:               4 1  1 3
# Bandgap, HSE06 (eV):              3.983
# Bandgap, GGA (eV):                3.0276
# Kpoint for VBM:                   0.5, 0, 0.5
# Kpoint for CBM:                   0.5, 0, 0.0714
# Dielectric constant, electronic:  3.7263
# Dielectric constant, ionic:       10.2834
# Dielectric constant, total:       14.0097
# Refractive index:                 1.9304
# Atomization energy (eV/atom):     -3.9523
# Relative energy1 (eV/atom):       0.1702
# Relative energy2 (eV/atom):       0.573
# Volume of the unit cell (A^3):    157.93
# Density (g/cm^3):                 2.7244
# Tool:                             VASP
# Pseudopotential:                  PAW
# Note:                             ENCUT=400eV, k-spacing_relax=0.20/Angstrom, k-spacing_bandgap=0.15/Angstrom
# Created by:                       C.Kim, T.D.Huan, S.Krishnan, R. Ramprasad