data_1
_audit_creation_method   'Generated by vasp2cif'
_cell_length_a    5.77047085983
_cell_length_b    5.75947393893
_cell_length_c    5.71598201352
_cell_angle_alpha    79.0205302978
_cell_angle_beta    81.8264239405
_cell_angle_gamma    84.6485744149

_symmetry_space_group_name_H-M    'P 1'
loop_
_atom_site_label
_atom_site_type_symbol
_atom_site_fract_x
_atom_site_fract_y
_atom_site_fract_z
_atom_site_occupancy
Sn1   Sn   0.609817093424631   0.334901865835611   0.511679382643763   1.0
Cl2   Cl   0.657532965674349   0.866898910209017   0.488942988813584   1.0
Cl3   Cl   0.082277574443474   0.338734447583477   0.475511455614750   1.0
Cl4   Cl   0.614801145501090   0.429605320997361   0.039096946336237   1.0
N5   N   0.097198644860541   0.738506268065478   0.856456407748560   1.0
N6   N   0.242597375947788   0.943725617178465   0.112282997784440   1.0
H7   H   0.234687154081406   0.614504735622347   0.862190898329715   1.0
H8   H   0.389872818925930   0.832970196615456   0.128017730358614   1.0
H9   H   0.968936157549237   0.725641285252543   0.755332835023623   1.0
H10   H   0.210812582420516   0.070426066379170   0.217883205562274   1.0
H11   H   0.926486868355440   0.031727069473391   0.979781984985223   1.0
C12   C   0.081139618815548   0.909348216787670   0.982723166799246   1.0




# HOIP entry ID:                    0613
# Khazana ID:                       2463
# Organic cation source:            T.D.Huan et al., Phys. Rev. B 93,094105(2016)
# Label:                            Formamidinium Tin Chloride
# Material class:                   Hybrid organic-inorganic perovskite ( MC_ino )
# Geometry class:                   Bulk crystalline materials ( GC_cry )
# Organic cation chemical formula:  HC(NH2)2
# Number of atom types:             5
# Total number of atoms:            12
# Atom types:                       C H N  Sn Cl
# Number of each atom:              1 5 2  1 3
# Bandgap, HSE06 (eV):              2.8626
# Bandgap, GGA (eV):                2.1304
# Kpoint for VBM:                   0.5, 0.5, 0.5
# Kpoint for CBM:                   0.5, 0.5, 0.5
# Dielectric constant, electronic:  3.8791
# Dielectric constant, ionic:       10.817
# Dielectric constant, total:       14.6961
# Refractive index:                 1.9696
# Atomization energy (eV/atom):     -4.5581
# Relative energy1 (eV/atom):       -0.2491
# Relative energy2 (eV/atom):       0.0866
# Volume of the unit cell (A^3):    184.17
# Density (g/cm^3):                 2.4357
# Tool:                             VASP
# Pseudopotential:                  PAW
# Note:                             ENCUT=400eV, k-spacing_relax=0.20/Angstrom, k-spacing_bandgap=0.15/Angstrom
# Created by:                       C.Kim, T.D.Huan, S.Krishnan, R. Ramprasad