data_1
_audit_creation_method   'Generated by vasp2cif'
_cell_length_a    5.73196062977
_cell_length_b    5.76225969574
_cell_length_c    5.72832796812
_cell_angle_alpha    91.9679980856
_cell_angle_beta    104.448976066
_cell_angle_gamma    93.0069875322

_symmetry_space_group_name_H-M    'P 1'
loop_
_atom_site_label
_atom_site_type_symbol
_atom_site_fract_x
_atom_site_fract_y
_atom_site_fract_z
_atom_site_occupancy
Sn1   Sn   0.520037243525742   0.386355661496445   0.654944145826335   1.0
Cl2   Cl   0.494522202774341   0.905824105975405   0.632117485295588   1.0
Cl3   Cl   0.453109799976581   0.357394010512863   0.171455158709875   1.0
Cl4   Cl   0.041191243415668   0.371652702894259   0.574942974534416   1.0
N5   N   0.133277519410399   0.822115022142427   0.011591944122415   1.0
N6   N   0.869194192047189   0.847729065824090   0.260206471674714   1.0
H7   H   0.189330953407946   0.662628021857351   0.065628706407992   1.0
H8   H   0.906073102087454   0.689891875172172   0.332269839127555   1.0
H9   H   0.216351516483932   0.900139101736983   0.894485120425060   1.0
H10   H   0.755353819880270   0.944723069508548   0.326866416000854   1.0
H11   H   0.941399859550586   0.107701455005724   0.045368820492861   1.0
C12   C   0.979526511110585   0.933805863125123   0.103322900382771   1.0




# HOIP entry ID:                    0614
# Khazana ID:                       2464
# Organic cation source:            T.D.Huan et al., Phys. Rev. B 93,094105(2016)
# Label:                            Formamidinium Tin Chloride
# Material class:                   Hybrid organic-inorganic perovskite ( MC_ino )
# Geometry class:                   Bulk crystalline materials ( GC_cry )
# Organic cation chemical formula:  HC(NH2)2
# Number of atom types:             5
# Total number of atoms:            12
# Atom types:                       C H N  Sn Cl
# Number of each atom:              1 5 2  1 3
# Bandgap, HSE06 (eV):              3.0719
# Bandgap, GGA (eV):                2.3183
# Kpoint for VBM:                   0.5, 0.5, 0.5
# Kpoint for CBM:                   0.5, 0.5, 0.5
# Dielectric constant, electronic:  3.9085
# Dielectric constant, ionic:       16.1676
# Dielectric constant, total:       20.0761
# Refractive index:                 1.977
# Atomization energy (eV/atom):     -4.5585
# Relative energy1 (eV/atom):       -0.2495
# Relative energy2 (eV/atom):       0.0862
# Volume of the unit cell (A^3):    182.74
# Density (g/cm^3):                 2.4547
# Tool:                             VASP
# Pseudopotential:                  PAW
# Note:                             ENCUT=400eV, k-spacing_relax=0.20/Angstrom, k-spacing_bandgap=0.15/Angstrom
# Created by:                       C.Kim, T.D.Huan, S.Krishnan, R. Ramprasad