data_1
_audit_creation_method   'Generated by vasp2cif'
_cell_length_a    5.72738065568
_cell_length_b    5.93625655528
_cell_length_c    5.93526227819
_cell_angle_alpha    101.55796695
_cell_angle_beta    100.043340319
_cell_angle_gamma    73.0803277397

_symmetry_space_group_name_H-M    'P 1'
loop_
_atom_site_label
_atom_site_type_symbol
_atom_site_fract_x
_atom_site_fract_y
_atom_site_fract_z
_atom_site_occupancy
Sn1   Sn   0.365984669091098   0.486676340301301   0.426131087864853   1.0
Cl2   Cl   0.509513987254572   0.913730102062971   0.211000365712231   1.0
Cl3   Cl   0.541089216512162   0.308154117083127   0.809772554148616   1.0
Cl4   Cl   0.949365715761033   0.381742883259093   0.433761278093591   1.0
N5   N   0.923867808487294   0.688669014546555   0.994203454019051   1.0
N6   N   0.192382096750236   0.862670265408468   0.672021141066359   1.0
H7   H   0.128642900562866   0.810616974808745   0.799438808678019   1.0
H8   H   0.048895610388506   0.980895294124679   0.592837722156013   1.0
H9   H   0.851782610427975   0.543568062769779   0.956387140580190   1.0
H10   H   0.318221505832675   0.956528412227478   0.747180785523121   1.0
H11   H   0.854154385538102   0.043006036517085   0.152551100005255   1.0
C12   C   0.802439493393486   0.876272496890579   0.102724562152709   1.0




# HOIP entry ID:                    0615
# Khazana ID:                       2465
# Organic cation source:            T.D.Huan et al., Phys. Rev. B 93,094105(2016)
# Label:                            Formamidinium Tin Chloride
# Material class:                   Hybrid organic-inorganic perovskite ( MC_ino )
# Geometry class:                   Bulk crystalline materials ( GC_cry )
# Organic cation chemical formula:  HC(NH2)2
# Number of atom types:             5
# Total number of atoms:            12
# Atom types:                       C H N  Sn Cl
# Number of each atom:              1 5 2  1 3
# Bandgap, HSE06 (eV):              3.7284
# Bandgap, GGA (eV):                2.7566
# Kpoint for VBM:                   0.5, 0.5, 0.5
# Kpoint for CBM:                   0.5, 0.5, 0.5
# Dielectric constant, electronic:  3.3795
# Dielectric constant, ionic:       3.9632
# Dielectric constant, total:       7.3427
# Refractive index:                 1.8383
# Atomization energy (eV/atom):     -4.4185
# Relative energy1 (eV/atom):       -0.1095
# Relative energy2 (eV/atom):       0.2262
# Volume of the unit cell (A^3):    187.69
# Density (g/cm^3):                 2.39
# Tool:                             VASP
# Pseudopotential:                  PAW
# Note:                             ENCUT=400eV, k-spacing_relax=0.20/Angstrom, k-spacing_bandgap=0.15/Angstrom
# Created by:                       C.Kim, T.D.Huan, S.Krishnan, R. Ramprasad