data_1
_audit_creation_method   'Generated by vasp2cif'
_cell_length_a    6.21810654382
_cell_length_b    6.22615619811
_cell_length_c    6.30068902005
_cell_angle_alpha    91.2341678158
_cell_angle_beta    90.7183017056
_cell_angle_gamma    89.4462833498

_symmetry_space_group_name_H-M    'P 1'
loop_
_atom_site_label
_atom_site_type_symbol
_atom_site_fract_x
_atom_site_fract_y
_atom_site_fract_z
_atom_site_occupancy
C1   C   0.287234102650729   0.361296903981469   0.470683856688915   1.0
C2   C   0.620627707283134   0.491592491029309   0.302004302015185   1.0
C3   C   0.579955885033549   0.521189663104906   0.691470020307015   1.0
C4   C   0.360131365199251   0.750176376753437   0.457143459167291   1.0
H5   H   0.487611154193615   0.868829484399903   0.466906803481741   1.0
H6   H   0.278019033192521   0.753990904841253   0.303998653716349   1.0
H7   H   0.205543664893675   0.370745479892271   0.317344922486107   1.0
H8   H   0.533433328775160   0.500064889865683   0.151512238127658   1.0
H9   H   0.464356649782260   0.556961170786167   0.816004361880189   1.0
H10   H   0.705782181284775   0.640729139205277   0.690740093786516   1.0
H11   H   0.742499654160646   0.615681228592976   0.314408076747476   1.0
H12   H   0.247404746677184   0.774418359495094   0.585617472755885   1.0
H13   H   0.648189216257876   0.360845059055002   0.707583540242446   1.0
H14   H   0.362678187431122   0.204615970516606   0.490584087947099   1.0
H15   H   0.693571756219441   0.333219707115482   0.320475497329774   1.0
H16   H   0.176645444361455   0.395849792489855   0.599682170083035   1.0
Cl17   Cl   0.388962576688094   0.054211951299259   0.964315989177500   1.0
Cl18   Cl   0.035583850794730   0.592022405298636   0.974993403870648   1.0
Cl19   Cl   0.891741283275735   0.019333490835997   0.566329015145669   1.0
N20   N   0.461909816250682   0.529855856069467   0.479747985176466   1.0
Sn21   Sn   0.973148395594343   0.013119675371982   0.979104049865889   1.0




# HOIP entry ID:                    0616
# Khazana ID:                       2466
# Organic cation source:            B.Saparov et al., Chem. Rev. 116, 4558 (2016)
# Label:                            Tetramethylammonium Tin Chloride
# Material class:                   Hybrid organic-inorganic perovskite ( MC_ino )
# Geometry class:                   Bulk crystalline materials ( GC_cry )
# Organic cation chemical formula:  (CH3)4N
# Number of atom types:             5
# Total number of atoms:            21
# Atom types:                       C H N  Sn Cl
# Number of each atom:              4 12 1  1 3
# Bandgap, HSE06 (eV):              3.8012
# Bandgap, GGA (eV):                2.9327
# Kpoint for VBM:                   0.5, 0.5, 0.5
# Kpoint for CBM:                   0.5, 0.5, 0.5
# Dielectric constant, electronic:  3.1115
# Dielectric constant, ionic:       2.0564
# Dielectric constant, total:       5.1679
# Refractive index:                 1.7639
# Atomization energy (eV/atom):     -4.5592
# Relative energy1 (eV/atom):       -0.1167
# Relative energy2 (eV/atom):       0.049
# Volume of the unit cell (A^3):    243.84
# Density (g/cm^3):                 2.0377
# Tool:                             VASP
# Pseudopotential:                  PAW
# Note:                             ENCUT=400eV, k-spacing_relax=0.20/Angstrom, k-spacing_bandgap=0.15/Angstrom
# Created by:                       C.Kim, T.D.Huan, S.Krishnan, R. Ramprasad