data_1
_audit_creation_method   'Generated by vasp2cif'
_cell_length_a    6.23410384207
_cell_length_b    6.41309702983
_cell_length_c    6.17205122469
_cell_angle_alpha    90.3330442419
_cell_angle_beta    86.8428909547
_cell_angle_gamma    89.4454044924

_symmetry_space_group_name_H-M    'P 1'
loop_
_atom_site_label
_atom_site_type_symbol
_atom_site_fract_x
_atom_site_fract_y
_atom_site_fract_z
_atom_site_occupancy
C1   C   0.349513975256194   0.415637989998927   0.316633201874730   1.0
C2   C   0.642838853842406   0.561528748747349   0.527170446330352   1.0
C3   C   0.404474864061463   0.288916473843209   0.688555039140184   1.0
C4   C   0.264122727770932   0.647062600655531   0.629730594806297   1.0
H5   H   0.311882878042106   0.690683674832172   0.790700431374027   1.0
H6   H   0.101592743709091   0.585888087058670   0.637895577451289   1.0
H7   H   0.184646539468261   0.361554175316151   0.332354259508101   1.0
H8   H   0.682305078315892   0.608882391240464   0.689763036011321   1.0
H9   H   0.239612822369317   0.234167426218917   0.697846257447132   1.0
H10   H   0.454544410023772   0.336717703517707   0.847294125335267   1.0
H11   H   0.750934793420733   0.438096555144810   0.465198296809874   1.0
H12   H   0.276448807556548   0.780047596050707   0.520930868590959   1.0
H13   H   0.514085604681732   0.169662002752190   0.619558854287391   1.0
H14   H   0.362234694037717   0.552415873707218   0.213056700129108   1.0
H15   H   0.645939262307934   0.694214898167274   0.418625538725188   1.0
H16   H   0.456068331355134   0.291442337100435   0.254294036928890   1.0
Cl17   Cl   0.499518043412699   0.924190250983742   0.070978523154786   1.0
Cl18   Cl   0.915520008378479   0.031439388321580   0.476925226170991   1.0
Cl19   Cl   0.886378522198484   0.386518255677977   0.010235067669889   1.0
N20   N   0.415749991837572   0.477521404030909   0.540637676328501   1.0
Sn21   Sn   0.915697047953550   0.984562166634120   0.053636241925652   1.0




# HOIP entry ID:                    0617
# Khazana ID:                       2467
# Organic cation source:            B.Saparov et al., Chem. Rev. 116, 4558 (2016)
# Label:                            Tetramethylammonium Tin Chloride
# Material class:                   Hybrid organic-inorganic perovskite ( MC_ino )
# Geometry class:                   Bulk crystalline materials ( GC_cry )
# Organic cation chemical formula:  (CH3)4N
# Number of atom types:             5
# Total number of atoms:            21
# Atom types:                       C H N  Sn Cl
# Number of each atom:              4 12 1  1 3
# Bandgap, HSE06 (eV):              3.9708
# Bandgap, GGA (eV):                3.0944
# Kpoint for VBM:                   0.5, 0.5, 0.5
# Kpoint for CBM:                   0.5, 0.5, 0.5
# Dielectric constant, electronic:  3.0584
# Dielectric constant, ionic:       1.9159
# Dielectric constant, total:       4.9743
# Refractive index:                 1.7488
# Atomization energy (eV/atom):     -4.56
# Relative energy1 (eV/atom):       -0.1175
# Relative energy2 (eV/atom):       0.0481
# Volume of the unit cell (A^3):    246.37
# Density (g/cm^3):                 2.0168
# Tool:                             VASP
# Pseudopotential:                  PAW
# Note:                             ENCUT=400eV, k-spacing_relax=0.20/Angstrom, k-spacing_bandgap=0.15/Angstrom
# Created by:                       C.Kim, T.D.Huan, S.Krishnan, R. Ramprasad