data_1
_audit_creation_method   'Generated by vasp2cif'
_cell_length_a    5.73894520065
_cell_length_b    5.54283585233
_cell_length_c    5.65891481926
_cell_angle_alpha    93.1739294941
_cell_angle_beta    84.1173251788
_cell_angle_gamma    87.0564669033

_symmetry_space_group_name_H-M    'P 1'
loop_
_atom_site_label
_atom_site_type_symbol
_atom_site_fract_x
_atom_site_fract_y
_atom_site_fract_z
_atom_site_occupancy
Cl1   Cl   0.928040668807725   0.963499453638200   0.556810566673420   1.0
Cl2   Cl   0.459123356985394   0.986027311263172   0.039446436500029   1.0
Cl3   Cl   0.022964676559830   0.515077190854853   0.997468345325913   1.0
H4   H   0.273283894738682   0.560177125288533   0.536172970874532   1.0
H5   H   0.509581374351264   0.686861948895839   0.425660898378197   1.0
H6   H   0.495546537453024   0.330740789468628   0.775727758465869   1.0
H7   H   0.736654519990275   0.454520651632926   0.661759574759834   1.0
H8   H   0.528224218382078   0.629867636240078   0.830693620633809   1.0
Sn9   Sn   0.974078258791529   0.012529640013725   0.079005063769849   1.0
N10   N   0.448925193398559   0.526578292343999   0.482697836838014   1.0
N11   N   0.558307300541543   0.485149960360012   0.703166927780721   1.0




# HOIP entry ID:                    0619
# Khazana ID:                       2469
# Organic cation source:            B.Saparov et al., Chem. Rev. 116, 4558 (2016)
# Label:                            Hydrazinium Tin Chloride
# Material class:                   Hybrid organic-inorganic perovskite ( MC_ino )
# Geometry class:                   Bulk crystalline materials ( GC_cry )
# Organic cation chemical formula:  NH2NH3
# Number of atom types:             4
# Total number of atoms:            11
# Atom types:                        H N  Sn Cl
# Number of each atom:               5 2  1 3
# Bandgap, HSE06 (eV):              2.4811
# Bandgap, GGA (eV):                1.8717
# Kpoint for VBM:                   0.5, 0.5, 0.5
# Kpoint for CBM:                   -0.4286, -0.4286, 0.4286
# Dielectric constant, electronic:  4.0315
# Dielectric constant, ionic:       14.3791
# Dielectric constant, total:       18.4107
# Refractive index:                 2.0079
# Atomization energy (eV/atom):     -4.1009
# Relative energy1 (eV/atom):       0.2532
# Relative energy2 (eV/atom):       0.6194
# Volume of the unit cell (A^3):    178.49
# Density (g/cm^3):                 2.4014
# Tool:                             VASP
# Pseudopotential:                  PAW
# Note:                             ENCUT=400eV, k-spacing_relax=0.20/Angstrom, k-spacing_bandgap=0.15/Angstrom
# Created by:                       C.Kim, T.D.Huan, S.Krishnan, R. Ramprasad