data_1
_audit_creation_method   'Generated by vasp2cif'
_cell_length_a    8.68911561417
_cell_length_b    5.58207915826
_cell_length_c    5.73718353777
_cell_angle_alpha    112.039762327
_cell_angle_beta    43.274487434
_cell_angle_gamma    118.23904456

_symmetry_space_group_name_H-M    'P 1'
loop_
_atom_site_label
_atom_site_type_symbol
_atom_site_fract_x
_atom_site_fract_y
_atom_site_fract_z
_atom_site_occupancy
Cl1   Cl   0.529187332141454   0.897719448703185   0.525557025878548   1.0
Cl2   Cl   0.169304382761325   0.972709554867151   0.449323763508758   1.0
Cl3   Cl   0.912748482580206   0.491659279090122   0.068004273251518   1.0
H4   H   0.428068363725728   0.675848284862653   0.139562871956649   1.0
H5   H   0.553245904234629   0.620221475331348   0.735930774677421   1.0
H6   H   0.617908189451057   0.445702004961120   0.063046054084644   1.0
H7   H   0.682728807625629   0.294356640887685   0.697707786526919   1.0
H8   H   0.828734025455446   0.628360180867119   0.714505712934411   1.0
Sn9   Sn   0.123664351908978   0.027220478830714   0.003442433372207   1.0
N10   N   0.478641559532576   0.532839085486636   0.940171474829619   1.0
N11   N   0.666248600582925   0.474513566112357   0.847067828979320   1.0




# HOIP entry ID:                    0621
# Khazana ID:                       2471
# Organic cation source:            B.Saparov et al., Chem. Rev. 116, 4558 (2016)
# Label:                            Hydrazinium Tin Chloride
# Material class:                   Hybrid organic-inorganic perovskite ( MC_ino )
# Geometry class:                   Bulk crystalline materials ( GC_cry )
# Organic cation chemical formula:  NH2NH3
# Number of atom types:             4
# Total number of atoms:            11
# Atom types:                        H N  Sn Cl
# Number of each atom:               5 2  1 3
# Bandgap, HSE06 (eV):              3.8342
# Bandgap, GGA (eV):                2.9804
# Kpoint for VBM:                   0.1, 0.5, 0.5
# Kpoint for CBM:                   0.1, 0.5, 0.5
# Dielectric constant, electronic:  3.702
# Dielectric constant, ionic:       14.6404
# Dielectric constant, total:       18.3424
# Refractive index:                 1.924
# Atomization energy (eV/atom):     -4.1049
# Relative energy1 (eV/atom):       0.2493
# Relative energy2 (eV/atom):       0.6155
# Volume of the unit cell (A^3):    167.83
# Density (g/cm^3):                 2.554
# Tool:                             VASP
# Pseudopotential:                  PAW
# Note:                             ENCUT=400eV, k-spacing_relax=0.20/Angstrom, k-spacing_bandgap=0.15/Angstrom
# Created by:                       C.Kim, T.D.Huan, S.Krishnan, R. Ramprasad