data_1
_audit_creation_method   'Generated by vasp2cif'
_cell_length_a    3.94890776141
_cell_length_b    5.99001769875
_cell_length_c    7.73368152324
_cell_angle_alpha    81.0866396171
_cell_angle_beta    108.500262676
_cell_angle_gamma    111.102363086

_symmetry_space_group_name_H-M    'P 1'
loop_
_atom_site_label
_atom_site_type_symbol
_atom_site_fract_x
_atom_site_fract_y
_atom_site_fract_z
_atom_site_occupancy
Cl1   Cl   0.203359032078296   0.973129905720711   0.567967010612726   1.0
Cl2   Cl   0.557915584146272   0.988851169714330   0.137840691769966   1.0
Cl3   Cl   0.678210719306868   0.543857677053516   0.876093524437728   1.0
H4   H   0.328242940235100   0.474649963232821   0.524103302309989   1.0
H5   H   0.339062719346529   0.710264735076265   0.380520354514935   1.0
H6   H   0.652591431171743   0.467119382461938   0.318565113741244   1.0
H7   H   0.224350562920897   0.246138288848343   0.277122706404839   1.0
H8   H   0.279659323804410   0.500002245297864   0.145111887934498   1.0
Sn9   Sn   0.901442267581359   0.018788227195074   0.843681154356389   1.0
N10   N   0.215824201444633   0.527866647737149   0.391974338680114   1.0
N11   N   0.357951217963766   0.429371757661961   0.276479915237552   1.0




# HOIP entry ID:                    0622
# Khazana ID:                       2472
# Organic cation source:            B.Saparov et al., Chem. Rev. 116, 4558 (2016)
# Label:                            Hydrazinium Tin Chloride
# Material class:                   Hybrid organic-inorganic perovskite ( MC_ino )
# Geometry class:                   Bulk crystalline materials ( GC_cry )
# Organic cation chemical formula:  NH2NH3
# Number of atom types:             4
# Total number of atoms:            11
# Atom types:                        H N  Sn Cl
# Number of each atom:               5 2  1 3
# Bandgap, HSE06 (eV):              3.9126
# Bandgap, GGA (eV):                3.0484
# Kpoint for VBM:                   0, 0.5, 0.5
# Kpoint for CBM:                   0, 0.5, 0
# Dielectric constant, electronic:  3.7293
# Dielectric constant, ionic:       11.7871
# Dielectric constant, total:       15.5163
# Refractive index:                 1.9311
# Atomization energy (eV/atom):     -4.1216
# Relative energy1 (eV/atom):       0.2325
# Relative energy2 (eV/atom):       0.5987
# Volume of the unit cell (A^3):    161.67
# Density (g/cm^3):                 2.6513
# Tool:                             VASP
# Pseudopotential:                  PAW
# Note:                             ENCUT=400eV, k-spacing_relax=0.20/Angstrom, k-spacing_bandgap=0.15/Angstrom
# Created by:                       C.Kim, T.D.Huan, S.Krishnan, R. Ramprasad