data_1
_audit_creation_method   'Generated by vasp2cif'
_cell_length_a    7.01012714899
_cell_length_b    5.76999007869
_cell_length_c    4.31480723532
_cell_angle_alpha    92.1678045988
_cell_angle_beta    73.0761575968
_cell_angle_gamma    88.1906219777

_symmetry_space_group_name_H-M    'P 1'
loop_
_atom_site_label
_atom_site_type_symbol
_atom_site_fract_x
_atom_site_fract_y
_atom_site_fract_z
_atom_site_occupancy
Cl1   Cl   0.465521603480077   0.119747970999768   0.373190715677829   1.0
Cl2   Cl   0.908225797415056   0.938162801411629   0.617113561543732   1.0
Cl3   Cl   0.058775767282427   0.422884455119885   0.070909187667041   1.0
H4   H   0.465736558343345   0.516348641375160   0.156659216604055   1.0
H5   H   0.615729112172559   0.738641124929423   0.057471798157096   1.0
H6   H   0.788389192859100   0.371302539207022   0.873580854798227   1.0
H7   H   0.628972885623362   0.329817148700378   0.647964468016809   1.0
H8   H   0.789207785883676   0.547302602501745   0.578534153248235   1.0
Sn9   Sn   0.186806658406816   0.974591327569435   0.964644646531568   1.0
N10   N   0.542330945170711   0.613083207337418   0.969098922206740   1.0
N11   N   0.696623693362824   0.453258180848081   0.756812475548678   1.0




# HOIP entry ID:                    0623
# Khazana ID:                       2473
# Organic cation source:            B.Saparov et al., Chem. Rev. 116, 4558 (2016)
# Label:                            Hydrazinium Tin Chloride
# Material class:                   Hybrid organic-inorganic perovskite ( MC_ino )
# Geometry class:                   Bulk crystalline materials ( GC_cry )
# Organic cation chemical formula:  NH2NH3
# Number of atom types:             4
# Total number of atoms:            11
# Atom types:                        H N  Sn Cl
# Number of each atom:               5 2  1 3
# Bandgap, HSE06 (eV):              4.0779
# Bandgap, GGA (eV):                3.1033
# Kpoint for VBM:                   0.2105, 0.5, 0.2105
# Kpoint for CBM:                   0.5, 0.2143, 0
# Dielectric constant, electronic:  3.6162
# Dielectric constant, ionic:       11.6413
# Dielectric constant, total:       15.2575
# Refractive index:                 1.9016
# Atomization energy (eV/atom):     -4.1124
# Relative energy1 (eV/atom):       0.2418
# Relative energy2 (eV/atom):       0.608
# Volume of the unit cell (A^3):    166.68
# Density (g/cm^3):                 2.5716
# Tool:                             VASP
# Pseudopotential:                  PAW
# Note:                             ENCUT=400eV, k-spacing_relax=0.20/Angstrom, k-spacing_bandgap=0.15/Angstrom
# Created by:                       C.Kim, T.D.Huan, S.Krishnan, R. Ramprasad