data_1
_audit_creation_method   'Generated by vasp2cif'
_cell_length_a    7.66440533151
_cell_length_b    3.94618614718
_cell_length_c    5.77585958132
_cell_angle_alpha    94.6102527226
_cell_angle_beta    90.7056745429
_cell_angle_gamma    72.7986937636

_symmetry_space_group_name_H-M    'P 1'
loop_
_atom_site_label
_atom_site_type_symbol
_atom_site_fract_x
_atom_site_fract_y
_atom_site_fract_z
_atom_site_occupancy
Cl1   Cl   0.432461891486469   0.032602185826761   0.042815492055645   1.0
Cl2   Cl   0.093773379385269   0.814872499326533   0.447934313309908   1.0
Cl3   Cl   0.858751321210782   0.346015633877784   0.968084779931054   1.0
H4   H   0.537638937196412   0.538107052318907   0.714767493030401   1.0
H5   H   0.448946631263986   0.569690535985558   0.452261706509447   1.0
H6   H   0.812385170994496   0.554850997234333   0.579286459337801   1.0
H7   H   0.737702951698438   0.566728313469682   0.305362149496098   1.0
H8   H   0.649344107174990   0.922446655937172   0.501581810006385   1.0
Sn9   Sn   0.147017997414416   0.695112171505201   0.990757618284434   1.0
N10   N   0.566031456020148   0.460202514140924   0.541941360138367   1.0
N11   N   0.698476156154577   0.643661440377102   0.478156817900448   1.0




# HOIP entry ID:                    0625
# Khazana ID:                       2475
# Organic cation source:            B.Saparov et al., Chem. Rev. 116, 4558 (2016)
# Label:                            Hydrazinium Tin Chloride
# Material class:                   Hybrid organic-inorganic perovskite ( MC_ino )
# Geometry class:                   Bulk crystalline materials ( GC_cry )
# Organic cation chemical formula:  NH2NH3
# Number of atom types:             4
# Total number of atoms:            11
# Atom types:                        H N  Sn Cl
# Number of each atom:               5 2  1 3
# Bandgap, HSE06 (eV):              3.6565
# Bandgap, GGA (eV):                2.8559
# Kpoint for VBM:                   0.5, 0.0455, 0.5
# Kpoint for CBM:                   0.1, 0.0455, 0.5
# Dielectric constant, electronic:  3.6994
# Dielectric constant, ionic:       11.1263
# Dielectric constant, total:       14.8257
# Refractive index:                 1.9234
# Atomization energy (eV/atom):     -4.1176
# Relative energy1 (eV/atom):       0.2365
# Relative energy2 (eV/atom):       0.6027
# Volume of the unit cell (A^3):    166.33
# Density (g/cm^3):                 2.577
# Tool:                             VASP
# Pseudopotential:                  PAW
# Note:                             ENCUT=400eV, k-spacing_relax=0.20/Angstrom, k-spacing_bandgap=0.15/Angstrom
# Created by:                       C.Kim, T.D.Huan, S.Krishnan, R. Ramprasad