data_1
_audit_creation_method   'Generated by vasp2cif'
_cell_length_a    7.43533889691
_cell_length_b    5.45963900193
_cell_length_c    4.41078818363
_cell_angle_alpha    90.0095519776
_cell_angle_beta    106.876510259
_cell_angle_gamma    76.0077253741

_symmetry_space_group_name_H-M    'P 1'
loop_
_atom_site_label
_atom_site_type_symbol
_atom_site_fract_x
_atom_site_fract_y
_atom_site_fract_z
_atom_site_occupancy
Cl1   Cl   0.517567102671229   0.993641018102238   0.143587887881303   1.0
Cl2   Cl   0.078654704301627   0.994523954956357   0.422714418727992   1.0
Cl3   Cl   0.949490750196880   0.533621431669403   0.859726759687945   1.0
H4   H   0.478906873123108   0.622730294855984   0.441535247625204   1.0
H5   H   0.467330353233194   0.629836868495751   0.805818276884239   1.0
H6   H   0.178211371047958   0.559709216650838   0.454822518599030   1.0
H7   H   0.317495312514517   0.294559772531940   0.354302306875837   1.0
H8   H   0.301823989246898   0.307575739912714   0.721144101217405   1.0
Sn9   Sn   0.816648700490440   0.060867634697807   0.799653759031116   1.0
N10   N   0.481683087631446   0.509219179605452   0.630058759273858   1.0
N11   N   0.305427755542681   0.416114888521555   0.531985964196132   1.0




# HOIP entry ID:                    0627
# Khazana ID:                       2477
# Organic cation source:            B.Saparov et al., Chem. Rev. 116, 4558 (2016)
# Label:                            Hydrazinium Tin Chloride
# Material class:                   Hybrid organic-inorganic perovskite ( MC_ino )
# Geometry class:                   Bulk crystalline materials ( GC_cry )
# Organic cation chemical formula:  NH2NH3
# Number of atom types:             4
# Total number of atoms:            11
# Atom types:                        H N  Sn Cl
# Number of each atom:               5 2  1 3
# Bandgap, HSE06 (eV):              3.7779
# Bandgap, GGA (eV):                2.8531
# Kpoint for VBM:                   0.5, 0.5, 0
# Kpoint for CBM:                   0.5, 0, 0
# Dielectric constant, electronic:  3.7388
# Dielectric constant, ionic:       17.44
# Dielectric constant, total:       21.1788
# Refractive index:                 1.9336
# Atomization energy (eV/atom):     -4.1086
# Relative energy1 (eV/atom):       0.2456
# Relative energy2 (eV/atom):       0.6118
# Volume of the unit cell (A^3):    165.78
# Density (g/cm^3):                 2.5855
# Tool:                             VASP
# Pseudopotential:                  PAW
# Note:                             ENCUT=400eV, k-spacing_relax=0.20/Angstrom, k-spacing_bandgap=0.15/Angstrom
# Created by:                       C.Kim, T.D.Huan, S.Krishnan, R. Ramprasad