data_1
_audit_creation_method   'Generated by vasp2cif'
_cell_length_a    7.70295489497
_cell_length_b    3.92628014956
_cell_length_c    5.64915958761
_cell_angle_alpha    89.3725816539
_cell_angle_beta    89.7361597318
_cell_angle_gamma    78.2220230999

_symmetry_space_group_name_H-M    'P 1'
loop_
_atom_site_label
_atom_site_type_symbol
_atom_site_fract_x
_atom_site_fract_y
_atom_site_fract_z
_atom_site_occupancy
Cl1   Cl   0.214674607577285   0.554972690161569   0.006562672271821   1.0
Cl2   Cl   0.959636962034644   0.233308509234070   0.508190880171348   1.0
Cl3   Cl   0.644311105717209   0.798349896195954   0.016845559425679   1.0
H4   H   0.566945510147278   0.461438192233826   0.676072835899578   1.0
H5   H   0.589991718012789   0.462110900934952   0.385818124368880   1.0
H6   H   0.279408123737593   0.761913614677718   0.644847546606960   1.0
H7   H   0.416101675217153   0.994024064545502   0.507794845035464   1.0
H8   H   0.296624160688066   0.755069862474071   0.347538974439969   1.0
Sn9   Sn   0.927803456791285   0.183432749501981   0.011971426014803   1.0
N10   N   0.502233351553305   0.441968515776615   0.519878632258032   1.0
N11   N   0.365409328523365   0.765101004263735   0.503848503507475   1.0




# HOIP entry ID:                    0628
# Khazana ID:                       2478
# Organic cation source:            B.Saparov et al., Chem. Rev. 116, 4558 (2016)
# Label:                            Hydrazinium Tin Chloride
# Material class:                   Hybrid organic-inorganic perovskite ( MC_ino )
# Geometry class:                   Bulk crystalline materials ( GC_cry )
# Organic cation chemical formula:  NH2NH3
# Number of atom types:             4
# Total number of atoms:            11
# Atom types:                        H N  Sn Cl
# Number of each atom:               5 2  1 3
# Bandgap, HSE06 (eV):              3.2211
# Bandgap, GGA (eV):                2.5046
# Kpoint for VBM:                   0.5, 0, 0.5
# Kpoint for CBM:                   0.1, 0, 0.5
# Dielectric constant, electronic:  3.8871
# Dielectric constant, ionic:       66.0937
# Dielectric constant, total:       69.9809
# Refractive index:                 1.9716
# Atomization energy (eV/atom):     -4.1173
# Relative energy1 (eV/atom):       0.2369
# Relative energy2 (eV/atom):       0.6031
# Volume of the unit cell (A^3):    167.25
# Density (g/cm^3):                 2.5628
# Tool:                             VASP
# Pseudopotential:                  PAW
# Note:                             ENCUT=400eV, k-spacing_relax=0.20/Angstrom, k-spacing_bandgap=0.15/Angstrom
# Created by:                       C.Kim, T.D.Huan, S.Krishnan, R. Ramprasad