data_1
_audit_creation_method   'Generated by vasp2cif'
_cell_length_a    5.93783528379
_cell_length_b    4.00015856169
_cell_length_c    7.47396373301
_cell_angle_alpha    101.698131734
_cell_angle_beta    93.5963960908
_cell_angle_gamma    68.5038451821

_symmetry_space_group_name_H-M    'P 1'
loop_
_atom_site_label
_atom_site_type_symbol
_atom_site_fract_x
_atom_site_fract_y
_atom_site_fract_z
_atom_site_occupancy
Cl1   Cl   0.980013610084171   0.523253358219257   0.753244730275021   1.0
Cl2   Cl   0.554044675321890   0.350819242757105   0.045604575621539   1.0
Cl3   Cl   0.001353734160624   0.727410904133421   0.318037022160290   1.0
H4   H   0.501299272359205   0.904709528609949   0.357052130437530   1.0
H5   H   0.261925663053041   0.110724735388693   0.497203465112982   1.0
H6   H   0.743631072254502   0.089111995540975   0.564166101971900   1.0
H7   H   0.501891658330507   0.472192558200533   0.552062648127929   1.0
H8   H   0.530719194853624   0.251690631623141   0.729370780641133   1.0
Sn9   Sn   0.039215086197402   0.098193933044534   0.035342110374131   1.0
N10   N   0.444335683789312   0.963632453661710   0.490607956434126   1.0
N11   N   0.559640349595789   0.215260658820760   0.590008478843444   1.0




# HOIP entry ID:                    0629
# Khazana ID:                       2479
# Organic cation source:            B.Saparov et al., Chem. Rev. 116, 4558 (2016)
# Label:                            Hydrazinium Tin Chloride
# Material class:                   Hybrid organic-inorganic perovskite ( MC_ino )
# Geometry class:                   Bulk crystalline materials ( GC_cry )
# Organic cation chemical formula:  NH2NH3
# Number of atom types:             4
# Total number of atoms:            11
# Atom types:                        H N  Sn Cl
# Number of each atom:               5 2  1 3
# Bandgap, HSE06 (eV):              4.0233
# Bandgap, GGA (eV):                3.1631
# Kpoint for VBM:                   0.5, 0.0455, 0.5
# Kpoint for CBM:                   0.5, 0.0455, 0
# Dielectric constant, electronic:  3.7499
# Dielectric constant, ionic:       12.4688
# Dielectric constant, total:       16.2187
# Refractive index:                 1.9365
# Atomization energy (eV/atom):     -4.1239
# Relative energy1 (eV/atom):       0.2303
# Relative energy2 (eV/atom):       0.5965
# Volume of the unit cell (A^3):    161.73
# Density (g/cm^3):                 2.6503
# Tool:                             VASP
# Pseudopotential:                  PAW
# Note:                             ENCUT=400eV, k-spacing_relax=0.20/Angstrom, k-spacing_bandgap=0.15/Angstrom
# Created by:                       C.Kim, T.D.Huan, S.Krishnan, R. Ramprasad