data_1
_audit_creation_method   'Generated by vasp2cif'
_cell_length_a    7.04006792048
_cell_length_b    5.70369415556
_cell_length_c    4.2997036854
_cell_angle_alpha    68.3314070776
_cell_angle_beta    107.270281686
_cell_angle_gamma    102.101424175

_symmetry_space_group_name_H-M    'P 1'
loop_
_atom_site_label
_atom_site_type_symbol
_atom_site_fract_x
_atom_site_fract_y
_atom_site_fract_z
_atom_site_occupancy
Sn1   Sn   0.903547464933929   0.914205118329505   0.800723921861788   1.0
Cl2   Cl   0.584429998894535   0.909860967235630   0.102259028871920   1.0
Cl3   Cl   0.184247395824997   0.037030782722034   0.340010363839440   1.0
Cl4   Cl   0.880556778172497   0.405104328412122   0.518649337715338   1.0
N5   N   0.393591472044399   0.471453092681308   0.723947456933296   1.0
H6   H   0.238685662941158   0.447756592287455   0.653302802128728   1.0
H7   H   0.447985209983031   0.296216348626494   0.848524898701285   1.0
H8   H   0.448291979441635   0.569325252502345   0.506620592217445   1.0
H9   H   0.440224037763862   0.582657517203160   0.882491597730805   1.0




# HOIP entry ID:                    0630
# Khazana ID:                       2480
# Organic cation source:            T.D.Huan et al., Phys. Rev. B 93,094105(2016)
# Label:                            Ammonium Tin Chloride
# Material class:                   Hybrid organic-inorganic perovskite ( MC_ino )
# Geometry class:                   Bulk crystalline materials ( GC_cry )
# Organic cation chemical formula:  NH4
# Number of atom types:             4
# Total number of atoms:            9
# Atom types:                        H N  Sn Cl
# Number of each atom:               4 1  1 3
# Bandgap, HSE06 (eV):              4.0297
# Bandgap, GGA (eV):                3.0513
# Kpoint for VBM:                   -0.1667, -0.3571, 0.3
# Kpoint for CBM:                   0.5, 0.5, 0
# Dielectric constant, electronic:  3.7136
# Dielectric constant, ionic:       24.0218
# Dielectric constant, total:       27.7354
# Refractive index:                 1.9271
# Atomization energy (eV/atom):     -3.9316
# Relative energy1 (eV/atom):       0.151
# Relative energy2 (eV/atom):       0.5986
# Volume of the unit cell (A^3):    152.24
# Density (g/cm^3):                 2.6517
# Tool:                             VASP
# Pseudopotential:                  PAW
# Note:                             ENCUT=400eV, k-spacing_relax=0.20/Angstrom, k-spacing_bandgap=0.15/Angstrom
# Created by:                       C.Kim, T.D.Huan, S.Krishnan, R. Ramprasad