data_1
_audit_creation_method   'Generated by vasp2cif'
_cell_length_a    5.64229350452
_cell_length_b    5.64495476355
_cell_length_c    5.65206238749
_cell_angle_alpha    83.3075676425
_cell_angle_beta    83.2796141914
_cell_angle_gamma    83.417151562

_symmetry_space_group_name_H-M    'P 1'
loop_
_atom_site_label
_atom_site_type_symbol
_atom_site_fract_x
_atom_site_fract_y
_atom_site_fract_z
_atom_site_occupancy
Sn1   Sn   0.976708153496993   0.975583684519798   0.032947609104845   1.0
Cl2   Cl   0.022630476191779   0.875712737986987   0.514679300356526   1.0
Cl3   Cl   0.457345908510923   0.024664013880873   0.929823247631369   1.0
Cl4   Cl   0.875782463601261   0.456601240839049   0.078345904946303   1.0
N5   N   0.529898651737909   0.530749871990757   0.583516895674492   1.0
H6   H   0.370393268750007   0.633487914076667   0.548915813508877   1.0
H7   H   0.493937290835760   0.372975960183545   0.689151495568012   1.0
H8   H   0.629463252601042   0.491621140005797   0.423700036949185   1.0
H9   H   0.628160534274251   0.626923436516591   0.673869696260397   1.0




# HOIP entry ID:                    0631
# Khazana ID:                       2481
# Organic cation source:            T.D.Huan et al., Phys. Rev. B 93,094105(2016)
# Label:                            Ammonium Tin Chloride
# Material class:                   Hybrid organic-inorganic perovskite ( MC_ino )
# Geometry class:                   Bulk crystalline materials ( GC_cry )
# Organic cation chemical formula:  NH4
# Number of atom types:             4
# Total number of atoms:            9
# Atom types:                        H N  Sn Cl
# Number of each atom:               4 1  1 3
# Bandgap, HSE06 (eV):              2.5818
# Bandgap, GGA (eV):                1.8983
# Kpoint for VBM:                   0.5, 0.5, 0.5
# Kpoint for CBM:                   0.3947, 0.3947, 0.3947
# Dielectric constant, electronic:  3.7569
# Dielectric constant, ionic:       12.7321
# Dielectric constant, total:       16.489
# Refractive index:                 1.9383
# Atomization energy (eV/atom):     -3.9222
# Relative energy1 (eV/atom):       0.1604
# Relative energy2 (eV/atom):       0.608
# Volume of the unit cell (A^3):    176.63
# Density (g/cm^3):                 2.2856
# Tool:                             VASP
# Pseudopotential:                  PAW
# Note:                             ENCUT=400eV, k-spacing_relax=0.20/Angstrom, k-spacing_bandgap=0.15/Angstrom
# Created by:                       C.Kim, T.D.Huan, S.Krishnan, R. Ramprasad