data_1
_audit_creation_method   'Generated by vasp2cif'
_cell_length_a    7.03753139336
_cell_length_b    5.70322280827
_cell_length_c    4.30277215937
_cell_angle_alpha    111.660760116
_cell_angle_beta    107.275052576
_cell_angle_gamma    77.8920896043

_symmetry_space_group_name_H-M    'P 1'
loop_
_atom_site_label
_atom_site_type_symbol
_atom_site_fract_x
_atom_site_fract_y
_atom_site_fract_z
_atom_site_occupancy
Sn1   Sn   0.090129802247205   0.947767688644042   0.149596663537594   1.0
Cl2   Cl   0.409384271756629   0.942957764132693   0.849807290385762   1.0
Cl3   Cl   0.809356448856605   0.070532283626370   0.611958645613100   1.0
Cl4   Cl   0.113117305698935   0.438514793879364   0.432650372499033   1.0
N5   N   0.599911273491713   0.504652203352236   0.228122811873227   1.0
H6   H   0.754874032179039   0.481192123398110   0.299727573541055   1.0
H7   H   0.545755715204024   0.329371451618385   0.102189834467431   1.0
H8   H   0.544608270584938   0.601493204643795   0.444845396573058   1.0
H9   H   0.553602879980858   0.616608486704941   0.070651411509800   1.0




# HOIP entry ID:                    0632
# Khazana ID:                       2482
# Organic cation source:            T.D.Huan et al., Phys. Rev. B 93,094105(2016)
# Label:                            Ammonium Tin Chloride
# Material class:                   Hybrid organic-inorganic perovskite ( MC_ino )
# Geometry class:                   Bulk crystalline materials ( GC_cry )
# Organic cation chemical formula:  NH4
# Number of atom types:             4
# Total number of atoms:            9
# Atom types:                        H N  Sn Cl
# Number of each atom:               4 1  1 3
# Bandgap, HSE06 (eV):              4.043
# Bandgap, GGA (eV):                3.0521
# Kpoint for VBM:                   0.5, 0.5, 0
# Kpoint for CBM:                   0.5, 0.5, 0
# Dielectric constant, electronic:  3.7096
# Dielectric constant, ionic:       18.2034
# Dielectric constant, total:       21.913
# Refractive index:                 1.926
# Atomization energy (eV/atom):     -3.9316
# Relative energy1 (eV/atom):       0.151
# Relative energy2 (eV/atom):       0.5986
# Volume of the unit cell (A^3):    152.28
# Density (g/cm^3):                 2.651
# Tool:                             VASP
# Pseudopotential:                  PAW
# Note:                             ENCUT=400eV, k-spacing_relax=0.20/Angstrom, k-spacing_bandgap=0.15/Angstrom
# Created by:                       C.Kim, T.D.Huan, S.Krishnan, R. Ramprasad