data_1
_audit_creation_method   'Generated by vasp2cif'
_cell_length_a    4.30015066107
_cell_length_b    5.70548002019
_cell_length_c    7.03658929881
_cell_angle_alpha    77.8786150901
_cell_angle_beta    72.6978555196
_cell_angle_gamma    68.2991721168

_symmetry_space_group_name_H-M    'P 1'
loop_
_atom_site_label
_atom_site_type_symbol
_atom_site_fract_x
_atom_site_fract_y
_atom_site_fract_z
_atom_site_occupancy
Sn1   Sn   0.841890796807874   0.947246500319132   0.093244989283100   1.0
Cl2   Cl   0.143253909729481   0.942358518848330   0.412606205295347   1.0
Cl3   Cl   0.380881462106942   0.070303684119835   0.812527121683544   1.0
Cl4   Cl   0.559238625345344   0.438066652354351   0.116486820353430   1.0
N5   N   0.765580156708957   0.503892293264521   0.602857372770515   1.0
H6   H   0.694988787998170   0.480299932660984   0.757874192086703   1.0
H7   H   0.889717486675089   0.328589555178254   0.548508885326569   1.0
H8   H   0.548252978371785   0.602032972532683   0.548209249496281   1.0
H9   H   0.924645796256314   0.614629890721773   0.556005163704448   1.0




# HOIP entry ID:                    0633
# Khazana ID:                       2483
# Organic cation source:            T.D.Huan et al., Phys. Rev. B 93,094105(2016)
# Label:                            Ammonium Tin Chloride
# Material class:                   Hybrid organic-inorganic perovskite ( MC_ino )
# Geometry class:                   Bulk crystalline materials ( GC_cry )
# Organic cation chemical formula:  NH4
# Number of atom types:             4
# Total number of atoms:            9
# Atom types:                        H N  Sn Cl
# Number of each atom:               4 1  1 3
# Bandgap, HSE06 (eV):              4.0415
# Bandgap, GGA (eV):                3.1189
# Kpoint for VBM:                   0.2778, -0.375, 0.1667
# Kpoint for CBM:                   0, -0.3125, 0.4167
# Dielectric constant, electronic:  3.7136
# Dielectric constant, ionic:       22.3953
# Dielectric constant, total:       26.1089
# Refractive index:                 1.9271
# Atomization energy (eV/atom):     -3.9315
# Relative energy1 (eV/atom):       0.1511
# Relative energy2 (eV/atom):       0.5987
# Volume of the unit cell (A^3):    152.17
# Density (g/cm^3):                 2.6529
# Tool:                             VASP
# Pseudopotential:                  PAW
# Note:                             ENCUT=400eV, k-spacing_relax=0.20/Angstrom, k-spacing_bandgap=0.15/Angstrom
# Created by:                       C.Kim, T.D.Huan, S.Krishnan, R. Ramprasad