data_1
_audit_creation_method   'Generated by vasp2cif'
_cell_length_a    5.87619508457
_cell_length_b    6.14972417319
_cell_length_c    6.2869891358
_cell_angle_alpha    86.2328305193
_cell_angle_beta    88.6225102623
_cell_angle_gamma    100.522933955

_symmetry_space_group_name_H-M    'P 1'
loop_
_atom_site_label
_atom_site_type_symbol
_atom_site_fract_x
_atom_site_fract_y
_atom_site_fract_z
_atom_site_occupancy
C1   C   0.654025287991018   0.325485463068389   0.541555916037176   1.0
C2   C   0.424879994687515   0.581030892694976   0.710574506714863   1.0
C3   C   0.373839233686262   0.505958973874129   0.332316533448250   1.0
H4   H   0.777187361748297   0.353266048262483   0.667990995492929   1.0
H5   H   0.550024243769428   0.602069767841044   0.835380775192249   1.0
H6   H   0.462065586512345   0.469169536161651   0.188815255497026   1.0
H7   H   0.311846670785890   0.661043057549868   0.308866200342827   1.0
H8   H   0.356736009685136   0.732247509451305   0.676267504270371   1.0
H9   H   0.676417445986978   0.661599929640104   0.468394661415978   1.0
H10   H   0.232111928461038   0.370474887890978   0.382834878494101   1.0
H11   H   0.518253078592060   0.182849184762738   0.586720695312252   1.0
H12   H   0.283226802063815   0.443644867388976   0.755200654910965   1.0
H13   H   0.739893519408923   0.303792392799181   0.391717893505621   1.0
Cl14   Cl   0.468546451799014   0.031014945480891   0.044133755442331   1.0
Cl15   Cl   0.932793134156697   0.568300648420923   0.028005101513642   1.0
Cl16   Cl   0.990224127669279   0.940428075054378   0.472165948245944   1.0
N17   N   0.543463356379732   0.528379430668359   0.509637352254991   1.0
Sn18   Sn   0.012565766616525   0.996304388989721   0.042281371908516   1.0




# HOIP entry ID:                    0634
# Khazana ID:                       2484
# Organic cation source:            A. Mancini et al., J. Solid State Chem. 240, 55 (2016)
# Label:                            Trimethylammonium Tin Chloride
# Material class:                   Hybrid organic-inorganic perovskite ( MC_ino )
# Geometry class:                   Bulk crystalline materials ( GC_cry )
# Organic cation chemical formula:  (CH3)3NH
# Number of atom types:             5
# Total number of atoms:            18
# Atom types:                       C H N  Sn Cl
# Number of each atom:              3 10 1  1 3
# Bandgap, HSE06 (eV):              3.3343
# Bandgap, GGA (eV):                2.4934
# Kpoint for VBM:                   0.5, 0.5, 0.5
# Kpoint for CBM:                   0.5, 0.5, 0.5
# Dielectric constant, electronic:  3.2825
# Dielectric constant, ionic:       3.5596
# Dielectric constant, total:       6.8421
# Refractive index:                 1.8118
# Atomization energy (eV/atom):     -4.4841
# Relative energy1 (eV/atom):       -0.1122
# Relative energy2 (eV/atom):       0.1116
# Volume of the unit cell (A^3):    222.74
# Density (g/cm^3):                 2.1261
# Tool:                             VASP
# Pseudopotential:                  PAW
# Note:                             ENCUT=400eV, k-spacing_relax=0.20/Angstrom, k-spacing_bandgap=0.15/Angstrom
# Created by:                       C.Kim, T.D.Huan, S.Krishnan, R. Ramprasad