data_1
_audit_creation_method   'Generated by vasp2cif'
_cell_length_a    5.86120976503
_cell_length_b    6.10222984196
_cell_length_c    6.35869438845
_cell_angle_alpha    88.7888434243
_cell_angle_beta    90.6486971396
_cell_angle_gamma    101.897716203

_symmetry_space_group_name_H-M    'P 1'
loop_
_atom_site_label
_atom_site_type_symbol
_atom_site_fract_x
_atom_site_fract_y
_atom_site_fract_z
_atom_site_occupancy
C1   C   0.632584315023159   0.319115352372535   0.480675629464642   1.0
C2   C   0.377003871993189   0.535382645992847   0.669302401991743   1.0
C3   C   0.388165051481394   0.546283899617137   0.282369907912880   1.0
H4   H   0.733951028222947   0.316779949782393   0.624593761078692   1.0
H5   H   0.477851926172264   0.518021812656578   0.810598050389856   1.0
H6   H   0.497620557111503   0.538141753510800   0.147309857488324   1.0
H7   H   0.331558926936360   0.704874490283572   0.284678213024492   1.0
H8   H   0.321307942973682   0.694844814018452   0.664614176520800   1.0
H9   H   0.666567639834554   0.663544637290258   0.482565611497989   1.0
H10   H   0.238199619693361   0.407315679564825   0.284036073405559   1.0
H11   H   0.490530298797374   0.172621939600802   0.474187965732071   1.0
H12   H   0.226705489375704   0.397233486541488   0.658118815300696   1.0
H13   H   0.742202595405644   0.329561054836084   0.342582848037132   1.0
Cl14   Cl   0.438081536646088   0.041942658280341   0.978071247184189   1.0
Cl15   Cl   0.919362597744247   0.558198452684579   0.969287288733454   1.0
Cl16   Cl   0.984205277274903   0.948811235389783   0.426062095082415   1.0
N17   N   0.528158255562353   0.526445840548995   0.480092723507489   1.0
Sn18   Sn   0.984093069751253   0.990060297028549   0.998343333647576   1.0




# HOIP entry ID:                    0635
# Khazana ID:                       2485
# Organic cation source:            A. Mancini et al., J. Solid State Chem. 240, 55 (2016)
# Label:                            Trimethylammonium Tin Chloride
# Material class:                   Hybrid organic-inorganic perovskite ( MC_ino )
# Geometry class:                   Bulk crystalline materials ( GC_cry )
# Organic cation chemical formula:  (CH3)3NH
# Number of atom types:             5
# Total number of atoms:            18
# Atom types:                       C H N  Sn Cl
# Number of each atom:              3 10 1  1 3
# Bandgap, HSE06 (eV):              3.1218
# Bandgap, GGA (eV):                2.2948
# Kpoint for VBM:                   0.5, 0.5, 0.5
# Kpoint for CBM:                   0.5, 0.5, 0.5
# Dielectric constant, electronic:  3.2859
# Dielectric constant, ionic:       3.5134
# Dielectric constant, total:       6.7993
# Refractive index:                 1.8127
# Atomization energy (eV/atom):     -4.4839
# Relative energy1 (eV/atom):       -0.1119
# Relative energy2 (eV/atom):       0.1119
# Volume of the unit cell (A^3):    222.49
# Density (g/cm^3):                 2.1285
# Tool:                             VASP
# Pseudopotential:                  PAW
# Note:                             ENCUT=400eV, k-spacing_relax=0.20/Angstrom, k-spacing_bandgap=0.15/Angstrom
# Created by:                       C.Kim, T.D.Huan, S.Krishnan, R. Ramprasad