data_1
_audit_creation_method   'Generated by vasp2cif'
_cell_length_a    5.92196057535
_cell_length_b    6.11605570333
_cell_length_c    6.25092337129
_cell_angle_alpha    97.8742495893
_cell_angle_beta    87.2749035263
_cell_angle_gamma    82.9556966232

_symmetry_space_group_name_H-M    'P 1'
loop_
_atom_site_label
_atom_site_type_symbol
_atom_site_fract_x
_atom_site_fract_y
_atom_site_fract_z
_atom_site_occupancy
C1   C   0.321185055022092   0.339836651646166   0.465073776214020   1.0
C2   C   0.565079944146142   0.604816242782768   0.325852018191526   1.0
C3   C   0.652806576791434   0.449963393972041   0.664316169215951   1.0
H4   H   0.181034650383303   0.405038488004728   0.375356125101739   1.0
H5   H   0.426844932324244   0.655789721605252   0.228043682203968   1.0
H6   H   0.573532645751087   0.412285077658360   0.813358043001003   1.0
H7   H   0.755796457567968   0.583886204847595   0.697236026253300   1.0
H8   H   0.657206288000644   0.743429267577419   0.380954447230899   1.0
H9   H   0.360964122436115   0.656235151653199   0.608992995321927   1.0
H10   H   0.754700169101689   0.301079643159909   0.576856842624906   1.0
H11   H   0.426906311854601   0.201567932271487   0.364769725069316   1.0
H12   H   0.682289116770072   0.468806867442986   0.234889231713744   1.0
H13   H   0.258328636443842   0.289694271778551   0.614291682281134   1.0
Cl14   Cl   0.534236838164446   0.987849824794417   0.952304389075714   1.0
Cl15   Cl   0.079061879108579   0.560822538570086   0.991770506718268   1.0
Cl16   Cl   0.033513307741842   0.915631604921622   0.561374924002799   1.0
N17   N   0.466737258416664   0.523021985331219   0.523160614225027   1.0
Sn18   Sn   0.987235809975125   0.987715131982256   0.987398801554974   1.0




# HOIP entry ID:                    0636
# Khazana ID:                       2486
# Organic cation source:            A. Mancini et al., J. Solid State Chem. 240, 55 (2016)
# Label:                            Trimethylammonium Tin Chloride
# Material class:                   Hybrid organic-inorganic perovskite ( MC_ino )
# Geometry class:                   Bulk crystalline materials ( GC_cry )
# Organic cation chemical formula:  (CH3)3NH
# Number of atom types:             5
# Total number of atoms:            18
# Atom types:                       C H N  Sn Cl
# Number of each atom:              3 10 1  1 3
# Bandgap, HSE06 (eV):              3.7227
# Bandgap, GGA (eV):                2.876
# Kpoint for VBM:                   0.5, 0.5, 0.5
# Kpoint for CBM:                   0.4286, -0.4167, 0.4167
# Dielectric constant, electronic:  3.2595
# Dielectric constant, ionic:       4.0313
# Dielectric constant, total:       7.2907
# Refractive index:                 1.8054
# Atomization energy (eV/atom):     -4.4839
# Relative energy1 (eV/atom):       -0.112
# Relative energy2 (eV/atom):       0.1118
# Volume of the unit cell (A^3):    222.1
# Density (g/cm^3):                 2.1323
# Tool:                             VASP
# Pseudopotential:                  PAW
# Note:                             ENCUT=400eV, k-spacing_relax=0.20/Angstrom, k-spacing_bandgap=0.15/Angstrom
# Created by:                       C.Kim, T.D.Huan, S.Krishnan, R. Ramprasad