data_1
_audit_creation_method   'Generated by vasp2cif'
_cell_length_a    6.25629249351
_cell_length_b    6.22933240989
_cell_length_c    5.96255069628
_cell_angle_alpha    94.4695243089
_cell_angle_beta    93.3729960082
_cell_angle_gamma    102.686256558

_symmetry_space_group_name_H-M    'P 1'
loop_
_atom_site_label
_atom_site_type_symbol
_atom_site_fract_x
_atom_site_fract_y
_atom_site_fract_z
_atom_site_occupancy
C1   C   0.429625550568474   0.391289442404542   0.709274697460870   1.0
C2   C   0.368060354613164   0.614255743933754   0.391947008562688   1.0
C3   C   0.645850788242235   0.380258260309340   0.374123429074793   1.0
H4   H   0.356047408727712   0.499384922040143   0.816711450229789   1.0
H5   H   0.295895757013163   0.716909046618504   0.507827797207732   1.0
H6   H   0.768736438047441   0.324628502378630   0.477610981467698   1.0
H7   H   0.722724479305363   0.478873602665985   0.245442799666250   1.0
H8   H   0.451837332250228   0.711179630276476   0.265412772157745   1.0
H9   H   0.653131208579502   0.652785849296365   0.599445322113787   1.0
H10   H   0.521760850850129   0.238168284228443   0.297218983539963   1.0
H11   H   0.304514138720968   0.252626707908114   0.627863883733163   1.0
H12   H   0.241006489405223   0.476561220148937   0.311440076529159   1.0
H13   H   0.556332573942427   0.333136864480217   0.802930743601742   1.0
Cl14   Cl   0.962275733824484   0.954626654466800   0.437715978504023   1.0
Cl15   Cl   0.978111196875304   0.575348088199355   0.913747708461585   1.0
Cl16   Cl   0.586466958130217   0.942680727680859   0.925348383708979   1.0
N17   N   0.534121221664577   0.520755179858298   0.524666689849077   1.0
Sn18   Sn   0.007621519239386   0.995101273105206   0.999531294130897   1.0




# HOIP entry ID:                    0637
# Khazana ID:                       2487
# Organic cation source:            A. Mancini et al., J. Solid State Chem. 240, 55 (2016)
# Label:                            Trimethylammonium Tin Chloride
# Material class:                   Hybrid organic-inorganic perovskite ( MC_ino )
# Geometry class:                   Bulk crystalline materials ( GC_cry )
# Organic cation chemical formula:  (CH3)3NH
# Number of atom types:             5
# Total number of atoms:            18
# Atom types:                       C H N  Sn Cl
# Number of each atom:              3 10 1  1 3
# Bandgap, HSE06 (eV):              4.1309
# Bandgap, GGA (eV):                3.2703
# Kpoint for VBM:                   0.5, 0.5, 0.5
# Kpoint for CBM:                   0.4167, -0.4167, 0.4286
# Dielectric constant, electronic:  3.1249
# Dielectric constant, ionic:       3.8269
# Dielectric constant, total:       6.9517
# Refractive index:                 1.7677
# Atomization energy (eV/atom):     -4.4847
# Relative energy1 (eV/atom):       -0.1128
# Relative energy2 (eV/atom):       0.111
# Volume of the unit cell (A^3):    225.32
# Density (g/cm^3):                 2.1018
# Tool:                             VASP
# Pseudopotential:                  PAW
# Note:                             ENCUT=400eV, k-spacing_relax=0.20/Angstrom, k-spacing_bandgap=0.15/Angstrom
# Created by:                       C.Kim, T.D.Huan, S.Krishnan, R. Ramprasad