data_1
_audit_creation_method   'Generated by vasp2cif'
_cell_length_a    5.96131094353
_cell_length_b    6.23227333975
_cell_length_c    6.25119180287
_cell_angle_alpha    77.2886351299
_cell_angle_beta    85.8804168587
_cell_angle_gamma    93.5703693704

_symmetry_space_group_name_H-M    'P 1'
loop_
_atom_site_label
_atom_site_type_symbol
_atom_site_fract_x
_atom_site_fract_y
_atom_site_fract_z
_atom_site_occupancy
C1   C   0.748423612204363   0.493144805354845   0.571442009213250   1.0
C2   C   0.406474539480094   0.694754154221670   0.611372479630049   1.0
C3   C   0.433372936860351   0.456077612540810   0.338067406079560   1.0
H4   H   0.833943925822169   0.607069565035204   0.653320819653281   1.0
H5   H   0.332309550685977   0.555158424906807   0.739491722360100   1.0
H6   H   0.356555596064837   0.313950451795407   0.461862176699057   1.0
H7   H   0.552109705894367   0.402503572778741   0.223920672729342   1.0
H8   H   0.505890589343842   0.808147653060537   0.684413832341477   1.0
H9   H   0.632925902963883   0.741243448022132   0.335457218045612   1.0
H10   H   0.304435057349160   0.546356331432591   0.250479664239734   1.0
H11   H   0.670297510438829   0.348728773246485   0.690937784043577   1.0
H12   H   0.275660646021343   0.778922261106786   0.521014804586827   1.0
H13   H   0.862426065285881   0.444488259506755   0.450485852327993   1.0
Cl14   Cl   0.474239338317581   0.039602403905114   0.023844943391630   1.0
Cl15   Cl   0.962153584638585   0.664345429893928   0.020851982321695   1.0
Cl16   Cl   0.951683425425252   0.041340135122752   0.403673437601434   1.0
N17   N   0.561123421957682   0.607469216498792   0.453889426064052   1.0
Sn18   Sn   0.036024591245827   0.084787501570574   0.983103768671370   1.0




# HOIP entry ID:                    0638
# Khazana ID:                       2488
# Organic cation source:            A. Mancini et al., J. Solid State Chem. 240, 55 (2016)
# Label:                            Trimethylammonium Tin Chloride
# Material class:                   Hybrid organic-inorganic perovskite ( MC_ino )
# Geometry class:                   Bulk crystalline materials ( GC_cry )
# Organic cation chemical formula:  (CH3)3NH
# Number of atom types:             5
# Total number of atoms:            18
# Atom types:                       C H N  Sn Cl
# Number of each atom:              3 10 1  1 3
# Bandgap, HSE06 (eV):              4.1311
# Bandgap, GGA (eV):                3.2609
# Kpoint for VBM:                   0.5, 0.5, 0.5
# Kpoint for CBM:                   0.4211, 0.4211, 0.4211
# Dielectric constant, electronic:  3.1262
# Dielectric constant, ionic:       2.6989
# Dielectric constant, total:       5.8251
# Refractive index:                 1.7681
# Atomization energy (eV/atom):     -4.4846
# Relative energy1 (eV/atom):       -0.1126
# Relative energy2 (eV/atom):       0.1112
# Volume of the unit cell (A^3):    225.24
# Density (g/cm^3):                 2.1025
# Tool:                             VASP
# Pseudopotential:                  PAW
# Note:                             ENCUT=400eV, k-spacing_relax=0.20/Angstrom, k-spacing_bandgap=0.15/Angstrom
# Created by:                       C.Kim, T.D.Huan, S.Krishnan, R. Ramprasad