data_1
_audit_creation_method   'Generated by vasp2cif'
_cell_length_a    5.96938425089
_cell_length_b    6.16669732202
_cell_length_c    6.12288024879
_cell_angle_alpha    96.0258348915
_cell_angle_beta    81.5631656397
_cell_angle_gamma    85.9564531621

_symmetry_space_group_name_H-M    'P 1'
loop_
_atom_site_label
_atom_site_type_symbol
_atom_site_fract_x
_atom_site_fract_y
_atom_site_fract_z
_atom_site_occupancy
C1   C   0.341042171526148   0.573550737772479   0.336942403877273   1.0
C2   C   0.643606704593942   0.784963684487607   0.475805863290269   1.0
C3   C   0.572515328558502   0.424052068270726   0.605100056885327   1.0
H4   H   0.268160757132712   0.725733741189060   0.292547713769544   1.0
H5   H   0.764089552677937   0.706915671559599   0.333318534709470   1.0
H6   H   0.440865461495896   0.315186028702492   0.644896102749890   1.0
H7   H   0.652037936456757   0.472889823486788   0.749646832401886   1.0
H8   H   0.558635769196997   0.934019447032959   0.434903797604306   1.0
H9   H   0.347269212905552   0.700816327859791   0.661736682106827   1.0
H10   H   0.701488755258566   0.346458362714841   0.469567306162425   1.0
H11   H   0.462429131457050   0.488944835563565   0.198616751581767   1.0
H12   H   0.727365024556676   0.818188685315342   0.619811136872535   1.0
H13   H   0.209562176441778   0.467689137624646   0.389113588896329   1.0
Cl14   Cl   0.452836645899566   0.045249874151843   0.004672255170895   1.0
Cl15   Cl   0.016604504810971   0.655014214842325   0.929995229615571   1.0
Cl16   Cl   0.075932498409607   0.097409643564021   0.574690845938001   1.0
N17   N   0.466436773221766   0.627563780352688   0.530281399415593   1.0
Sn18   Sn   0.011481595399658   0.089143935509263   0.002993498952186   1.0




# HOIP entry ID:                    0640
# Khazana ID:                       2490
# Organic cation source:            A. Mancini et al., J. Solid State Chem. 240, 55 (2016)
# Label:                            Trimethylammonium Tin Chloride
# Material class:                   Hybrid organic-inorganic perovskite ( MC_ino )
# Geometry class:                   Bulk crystalline materials ( GC_cry )
# Organic cation chemical formula:  (CH3)3NH
# Number of atom types:             5
# Total number of atoms:            18
# Atom types:                       C H N  Sn Cl
# Number of each atom:              3 10 1  1 3
# Bandgap, HSE06 (eV):              3.9545
# Bandgap, GGA (eV):                3.1009
# Kpoint for VBM:                   0.5, 0.5, 0.5
# Kpoint for CBM:                   0.3571, 0.5, 0.5
# Dielectric constant, electronic:  3.2321
# Dielectric constant, ionic:       2.8322
# Dielectric constant, total:       6.0644
# Refractive index:                 1.7978
# Atomization energy (eV/atom):     -4.4851
# Relative energy1 (eV/atom):       -0.1132
# Relative energy2 (eV/atom):       0.1106
# Volume of the unit cell (A^3):    220.87
# Density (g/cm^3):                 2.1441
# Tool:                             VASP
# Pseudopotential:                  PAW
# Note:                             ENCUT=400eV, k-spacing_relax=0.20/Angstrom, k-spacing_bandgap=0.15/Angstrom
# Created by:                       C.Kim, T.D.Huan, S.Krishnan, R. Ramprasad