data_1
_audit_creation_method   'Generated by vasp2cif'
_cell_length_a    8.15453921453
_cell_length_b    4.91473644612
_cell_length_c    5.8771027442
_cell_angle_alpha    100.688240692
_cell_angle_beta    96.4106260225
_cell_angle_gamma    91.630571552

_symmetry_space_group_name_H-M    'P 1'
loop_
_atom_site_label
_atom_site_type_symbol
_atom_site_fract_x
_atom_site_fract_y
_atom_site_fract_z
_atom_site_occupancy
C1   C   0.464298526532033   0.532822496930031   0.768018661536175   1.0
C2   C   0.477537989105748   0.799873543912128   0.449415709274625   1.0
C3   C   0.679145355635967   0.440250943417865   0.488615056013614   1.0
H4   H   0.411121809995876   0.705898039918480   0.874551986725649   1.0
H5   H   0.411625551550038   0.963003644910010   0.546677804730606   1.0
H6   H   0.743522390136569   0.325144042759696   0.610189794387757   1.0
H7   H   0.768534923868536   0.550357655492611   0.410231533652926   1.0
H8   H   0.562417187699701   0.881939261887247   0.345520945049579   1.0
H9   H   0.655775614203058   0.799707975479457   0.731475990839428   1.0
H10   H   0.596623797117971   0.304430679002294   0.354784753341413   1.0
H11   H   0.366794296135041   0.400945912843568   0.654527674326957   1.0
H12   H   0.389443093673826   0.647575312072085   0.338798536511121   1.0
H13   H   0.538108115303132   0.414305320333654   0.877251760447301   1.0
Cl14   Cl   0.041641063003489   0.870766302597353   0.496333209284316   1.0
Cl15   Cl   0.272407593210055   0.166185980870687   0.090098320705238   1.0
Cl16   Cl   0.792199874358701   0.097209647130747   0.004606454708181   1.0
N17   N   0.575866848904219   0.652858013609261   0.618597584318884   1.0
Sn18   Sn   0.044255969566031   0.764135226832877   0.046074224146267   1.0




# HOIP entry ID:                    0642
# Khazana ID:                       2492
# Organic cation source:            A. Mancini et al., J. Solid State Chem. 240, 55 (2016)
# Label:                            Trimethylammonium Tin Chloride
# Material class:                   Hybrid organic-inorganic perovskite ( MC_ino )
# Geometry class:                   Bulk crystalline materials ( GC_cry )
# Organic cation chemical formula:  (CH3)3NH
# Number of atom types:             5
# Total number of atoms:            18
# Atom types:                       C H N  Sn Cl
# Number of each atom:              3 10 1  1 3
# Bandgap, HSE06 (eV):              4.2105
# Bandgap, GGA (eV):                3.2806
# Kpoint for VBM:                   0.5, 0.5, 0.5
# Kpoint for CBM:                   -0.3, 0, 0.3571
# Dielectric constant, electronic:  3.0387
# Dielectric constant, ionic:       2.6202
# Dielectric constant, total:       5.6589
# Refractive index:                 1.7432
# Atomization energy (eV/atom):     -4.474
# Relative energy1 (eV/atom):       -0.102
# Relative energy2 (eV/atom):       0.1218
# Volume of the unit cell (A^3):    229.71
# Density (g/cm^3):                 2.0616
# Tool:                             VASP
# Pseudopotential:                  PAW
# Note:                             ENCUT=400eV, k-spacing_relax=0.20/Angstrom, k-spacing_bandgap=0.15/Angstrom
# Created by:                       C.Kim, T.D.Huan, S.Krishnan, R. Ramprasad