data_1
_audit_creation_method   'Generated by vasp2cif'
_cell_length_a    6.21546669271
_cell_length_b    4.82281804477
_cell_length_c    7.71860351122
_cell_angle_alpha    91.1913183944
_cell_angle_beta    92.6172612856
_cell_angle_gamma    75.0218250445

_symmetry_space_group_name_H-M    'P 1'
loop_
_atom_site_label
_atom_site_type_symbol
_atom_site_fract_x
_atom_site_fract_y
_atom_site_fract_z
_atom_site_occupancy
C1   C   0.526440984874675   0.880279449959737   0.391081877905691   1.0
C2   C   0.451796461872860   0.907992332426844   0.706721384061495   1.0
C3   C   0.260936612514634   0.627921372898996   0.507980506449258   1.0
H4   H   0.598107335516652   0.061822672716318   0.413605280797363   1.0
H5   H   0.325208481782312   0.910482367056588   0.799248832806036   1.0
H6   H   0.211300559601156   0.602661707760511   0.373055836352783   1.0
H7   H   0.119739228879354   0.658473903427492   0.591284243774481   1.0
H8   H   0.590888172979412   0.718925907488760   0.723522760970319   1.0
H9   H   0.220844672132756   0.062755970278801   0.501808777409330   1.0
H10   H   0.394322024557134   0.444506160835793   0.550012108638754   1.0
H11   H   0.655516143251752   0.679372707237604   0.407081542073897   1.0
H12   H   0.509717224290398   0.101793077072564   0.719188146432273   1.0
H13   H   0.444975599283744   0.891535064517683   0.262528434913008   1.0
Cl14   Cl   0.942702092834857   0.189890679432203   0.256141471113494   1.0
Cl15   Cl   0.906299037935504   0.233013901679840   0.743575171573639   1.0
Cl16   Cl   0.355001276041783   0.453479739583997   0.030413759798421   1.0
N17   N   0.354306400477853   0.887122277117641   0.525163092822346   1.0
Sn18   Sn   0.925587691173341   0.578650708508739   0.015706772107528   1.0




# HOIP entry ID:                    0643
# Khazana ID:                       2493
# Organic cation source:            A. Mancini et al., J. Solid State Chem. 240, 55 (2016)
# Label:                            Trimethylammonium Tin Chloride
# Material class:                   Hybrid organic-inorganic perovskite ( MC_ino )
# Geometry class:                   Bulk crystalline materials ( GC_cry )
# Organic cation chemical formula:  (CH3)3NH
# Number of atom types:             5
# Total number of atoms:            18
# Atom types:                       C H N  Sn Cl
# Number of each atom:              3 10 1  1 3
# Bandgap, HSE06 (eV):              4.4416
# Bandgap, GGA (eV):                3.4837
# Kpoint for VBM:                   0.5, 0.5, 0.5
# Kpoint for CBM:                   0.4167, 0, 0.4
# Dielectric constant, electronic:  3.0488
# Dielectric constant, ionic:       2.7081
# Dielectric constant, total:       5.7569
# Refractive index:                 1.7461
# Atomization energy (eV/atom):     -4.473
# Relative energy1 (eV/atom):       -0.1011
# Relative energy2 (eV/atom):       0.1227
# Volume of the unit cell (A^3):    223.27
# Density (g/cm^3):                 2.1211
# Tool:                             VASP
# Pseudopotential:                  PAW
# Note:                             ENCUT=400eV, k-spacing_relax=0.20/Angstrom, k-spacing_bandgap=0.15/Angstrom
# Created by:                       C.Kim, T.D.Huan, S.Krishnan, R. Ramprasad