data_1
_audit_creation_method   'Generated by vasp2cif'
_cell_length_a    6.049883313
_cell_length_b    5.90345252589
_cell_length_c    5.90021771395
_cell_angle_alpha    90.2184953738
_cell_angle_beta    89.9647415261
_cell_angle_gamma    86.5361901722

_symmetry_space_group_name_H-M    'P 1'
loop_
_atom_site_label
_atom_site_type_symbol
_atom_site_fract_x
_atom_site_fract_y
_atom_site_fract_z
_atom_site_occupancy
Cl1   Cl   0.008799415228360   0.985555770038282   0.571226843476445   1.0
Cl2   Cl   0.572827312529128   0.060885850078208   0.060908144660352   1.0
Cl3   Cl   0.026113607423199   0.474668119910987   0.060219029146154   1.0
H4   H   0.378164612296040   0.865649483487523   0.564339340001631   1.0
H5   H   0.673263687644159   0.560649178975282   0.289015703841692   1.0
H6   H   0.658099685712919   0.852375651305969   0.561988609858453   1.0
H7   H   0.316687760365305   0.328754618899247   0.560580356929378   1.0
H8   H   0.678023619403717   0.558159942830827   0.828863045713561   1.0
H9   H   0.384774674543834   0.605920343821694   0.865106870491402   1.0
H10   H   0.379368715052614   0.608779215192243   0.259555873617423   1.0
H11   H   0.606989314662727   0.250908545969878   0.557302995904834   1.0
C12   C   0.518259015051527   0.572093855236716   0.744695992029172   1.0
C13   C   0.515107069987259   0.573821420073116   0.376644216689570   1.0
C14   C   0.482574090925389   0.391673864700415   0.559563563444080   1.0
Sn15   Sn   0.009433313314702   0.033061395073901   0.059281535474746   1.0
N16   N   0.519554105859214   0.759092744405805   0.562117878721153   1.0




# HOIP entry ID:                    0644
# Khazana ID:                       2494
# Organic cation source:            B. Zhou et al., Angew. Chem. Int. Ed. 50, 11441 (2011)
# Label:                            Azetidinium Tin Chloride
# Material class:                   Hybrid organic-inorganic perovskite ( MC_ino )
# Geometry class:                   Bulk crystalline materials ( GC_cry )
# Organic cation chemical formula:  C3H6N2
# Number of atom types:             5
# Total number of atoms:            16
# Atom types:                       C H N  Sn Cl
# Number of each atom:              3 8 1  1 3
# Bandgap, HSE06 (eV):              2.7985
# Bandgap, GGA (eV):                2.0435
# Kpoint for VBM:                   0.5, 0.5, 0.5
# Kpoint for CBM:                   0.5, 0.5, 0.5
# Dielectric constant, electronic:  3.6098
# Dielectric constant, ionic:       32.4477
# Dielectric constant, total:       36.0576
# Refractive index:                 1.8999
# Atomization energy (eV/atom):     -4.5543
# Relative energy1 (eV/atom):       -0.0897
# Relative energy2 (eV/atom):       0.1621
# Volume of the unit cell (A^3):    210.34
# Density (g/cm^3):                 2.2356
# Tool:                             VASP
# Pseudopotential:                  PAW
# Note:                             ENCUT=400eV, k-spacing_relax=0.20/Angstrom, k-spacing_bandgap=0.15/Angstrom
# Created by:                       C.Kim, T.D.Huan, S.Krishnan, R. Ramprasad