data_1
_audit_creation_method   'Generated by vasp2cif'
_cell_length_a    5.95632577541
_cell_length_b    5.92775807283
_cell_length_c    5.95961506094
_cell_angle_alpha    92.7556101702
_cell_angle_beta    85.7737661259
_cell_angle_gamma    90.8881234149

_symmetry_space_group_name_H-M    'P 1'
loop_
_atom_site_label
_atom_site_type_symbol
_atom_site_fract_x
_atom_site_fract_y
_atom_site_fract_z
_atom_site_occupancy
Cl1   Cl   0.489615833151547   0.057319241940462   0.966742005737295   1.0
Cl2   Cl   0.975014203570893   0.110957722474758   0.487973333981849   1.0
Cl3   Cl   0.960623941399433   0.561537618357434   0.952198995935021   1.0
H4   H   0.484074498477618   0.899476126100780   0.307723694497334   1.0
H5   H   0.729401909519517   0.686329526872633   0.638262650873102   1.0
H6   H   0.417821346004082   0.907978233040119   0.587552348885453   1.0
H7   H   0.501781900208208   0.291141105495129   0.411258107545990   1.0
H8   H   0.133352103544269   0.629882480161257   0.516206795182015   1.0
H9   H   0.269239521956017   0.573834559060060   0.241329908874910   1.0
H10   H   0.759658339992789   0.619366064852230   0.340868773179011   1.0
H11   H   0.421559099559630   0.405005616939249   0.687815822707954   1.0
C12   C   0.292819866068960   0.601977931379416   0.419748211168603   1.0
C13   C   0.643506384302448   0.635271495933097   0.489914023004943   1.0
C14   C   0.464299924890952   0.444755252178702   0.513098371457666   1.0
Sn15   Sn   0.954485295710178   0.116572871764205   0.939544497493593   1.0
N16   N   0.457695831643498   0.803894153450592   0.447692459475199   1.0




# HOIP entry ID:                    0645
# Khazana ID:                       2495
# Organic cation source:            B. Zhou et al., Angew. Chem. Int. Ed. 50, 11441 (2011)
# Label:                            Azetidinium Tin Chloride
# Material class:                   Hybrid organic-inorganic perovskite ( MC_ino )
# Geometry class:                   Bulk crystalline materials ( GC_cry )
# Organic cation chemical formula:  C3H6N2
# Number of atom types:             5
# Total number of atoms:            16
# Atom types:                       C H N  Sn Cl
# Number of each atom:              3 8 1  1 3
# Bandgap, HSE06 (eV):              2.6822
# Bandgap, GGA (eV):                1.9365
# Kpoint for VBM:                   0.5, 0.5, 0.5
# Kpoint for CBM:                   0.5, 0.5, 0.5
# Dielectric constant, electronic:  3.6385
# Dielectric constant, ionic:       7.3878
# Dielectric constant, total:       11.0263
# Refractive index:                 1.9075
# Atomization energy (eV/atom):     -4.5517
# Relative energy1 (eV/atom):       -0.0871
# Relative energy2 (eV/atom):       0.1647
# Volume of the unit cell (A^3):    209.59
# Density (g/cm^3):                 2.2436
# Tool:                             VASP
# Pseudopotential:                  PAW
# Note:                             ENCUT=400eV, k-spacing_relax=0.20/Angstrom, k-spacing_bandgap=0.15/Angstrom
# Created by:                       C.Kim, T.D.Huan, S.Krishnan, R. Ramprasad