data_1
_audit_creation_method   'Generated by vasp2cif'
_cell_length_a    5.92754523064
_cell_length_b    5.93558852597
_cell_length_c    5.94079317999
_cell_angle_alpha    85.5680456254
_cell_angle_beta    82.0168175153
_cell_angle_gamma    94.8322259443

_symmetry_space_group_name_H-M    'P 1'
loop_
_atom_site_label
_atom_site_type_symbol
_atom_site_fract_x
_atom_site_fract_y
_atom_site_fract_z
_atom_site_occupancy
Cl1   Cl   0.009451154345648   0.052243600983402   0.474541435062321   1.0
Cl2   Cl   0.588007170279916   0.051781379430835   0.047883292255975   1.0
Cl3   Cl   0.052021592710425   0.555009586475805   0.014533175835567   1.0
H4   H   0.361009596328806   0.812954565620181   0.717072097700523   1.0
H5   H   0.394579344250239   0.656102663951629   0.268789249106234   1.0
H6   H   0.577000859713579   0.893410894587568   0.503127919125042   1.0
H7   H   0.466272219925848   0.248280352289797   0.580579808495763   1.0
H8   H   0.799414522462065   0.636901605841359   0.668544415935884   1.0
H9   H   0.552633099454901   0.520275631105541   0.863507569757473   1.0
H10   H   0.196997462198723   0.537052564833225   0.512397156688813   1.0
H11   H   0.681593645928750   0.398149695015704   0.370843406318052   1.0
C12   C   0.620285140607415   0.573773701443436   0.686162551989995   1.0
C13   C   0.375908828740883   0.585465509653432   0.444792052745413   1.0
C14   C   0.545459519879621   0.415244744386790   0.509483086128490   1.0
Sn15   Sn   0.038372104893192   0.101065286869442   0.024620667507541   1.0
N16   N   0.477663738280008   0.757318217511866   0.594922115346897   1.0




# HOIP entry ID:                    0647
# Khazana ID:                       2497
# Organic cation source:            B. Zhou et al., Angew. Chem. Int. Ed. 50, 11441 (2011)
# Label:                            Azetidinium Tin Chloride
# Material class:                   Hybrid organic-inorganic perovskite ( MC_ino )
# Geometry class:                   Bulk crystalline materials ( GC_cry )
# Organic cation chemical formula:  C3H6N2
# Number of atom types:             5
# Total number of atoms:            16
# Atom types:                       C H N  Sn Cl
# Number of each atom:              3 8 1  1 3
# Bandgap, HSE06 (eV):              3.0009
# Bandgap, GGA (eV):                2.2266
# Kpoint for VBM:                   0.5, 0.5, 0.5
# Kpoint for CBM:                   0.5, 0.5, 0.5
# Dielectric constant, electronic:  3.6157
# Dielectric constant, ionic:       6.6041
# Dielectric constant, total:       10.2198
# Refractive index:                 1.9015
# Atomization energy (eV/atom):     -4.5506
# Relative energy1 (eV/atom):       -0.086
# Relative energy2 (eV/atom):       0.1657
# Volume of the unit cell (A^3):    205.42
# Density (g/cm^3):                 2.2891
# Tool:                             VASP
# Pseudopotential:                  PAW
# Note:                             ENCUT=400eV, k-spacing_relax=0.20/Angstrom, k-spacing_bandgap=0.15/Angstrom
# Created by:                       C.Kim, T.D.Huan, S.Krishnan, R. Ramprasad