data_1
_audit_creation_method   'Generated by vasp2cif'
_cell_length_a    8.00846463244
_cell_length_b    5.808830272
_cell_length_c    4.66770471645
_cell_angle_alpha    93.0883214695
_cell_angle_beta    84.3117190062
_cell_angle_gamma    86.3888874931

_symmetry_space_group_name_H-M    'P 1'
loop_
_atom_site_label
_atom_site_type_symbol
_atom_site_fract_x
_atom_site_fract_y
_atom_site_fract_z
_atom_site_occupancy
Cl1   Cl   0.204323385309465   0.633978243803867   0.793731462226802   1.0
Cl2   Cl   0.968501902522007   0.138644696896428   0.244779599879415   1.0
Cl3   Cl   0.716028996296167   0.697722590697786   0.888427050418933   1.0
H4   H   0.404192782107017   0.982328672523465   0.946788530157505   1.0
H5   H   0.603156824385167   0.376888657527935   0.032582829119114   1.0
H6   H   0.671380856417954   0.097926325119658   0.045386322949923   1.0
H7   H   0.648383656123912   0.151649346958393   0.544645845212024   1.0
H8   H   0.512538956425111   0.408498978657285   0.530076107019937   1.0
H9   H   0.268989299755191   0.156703898477431   0.543908416230899   1.0
H10   H   0.408916397837231   0.906158405985003   0.458608204184863   1.0
H11   H   0.316067398875966   0.272597290792170   0.037283288126339   1.0
C12   C   0.541468732096966   0.229339389082000   0.449312590919447   1.0
C13   C   0.399638904305938   0.132413883826388   0.096476509268719   1.0
C14   C   0.385291246453825   0.088311388337743   0.420177741458389   1.0
Sn15   Sn   0.975075642527145   0.676256267991846   0.250881860659689   1.0
N16   N   0.576485018560930   0.221381963322599   0.119223642168144   1.0




# HOIP entry ID:                    0649
# Khazana ID:                       2499
# Organic cation source:            B. Zhou et al., Angew. Chem. Int. Ed. 50, 11441 (2011)
# Label:                            Azetidinium Tin Chloride
# Material class:                   Hybrid organic-inorganic perovskite ( MC_ino )
# Geometry class:                   Bulk crystalline materials ( GC_cry )
# Organic cation chemical formula:  C3H6N2
# Number of atom types:             5
# Total number of atoms:            16
# Atom types:                       C H N  Sn Cl
# Number of each atom:              3 8 1  1 3
# Bandgap, HSE06 (eV):              3.3829
# Bandgap, GGA (eV):                2.3613
# Kpoint for VBM:                   0.5, 0.5, 0.5
# Kpoint for CBM:                   0.5, 0.5, 0
# Dielectric constant, electronic:  3.3151
# Dielectric constant, ionic:       6.2403
# Dielectric constant, total:       9.5554
# Refractive index:                 1.8207
# Atomization energy (eV/atom):     -4.5408
# Relative energy1 (eV/atom):       -0.0762
# Relative energy2 (eV/atom):       0.1756
# Volume of the unit cell (A^3):    215.25
# Density (g/cm^3):                 2.1846
# Tool:                             VASP
# Pseudopotential:                  PAW
# Note:                             ENCUT=400eV, k-spacing_relax=0.20/Angstrom, k-spacing_bandgap=0.15/Angstrom
# Created by:                       C.Kim, T.D.Huan, S.Krishnan, R. Ramprasad