data_1
_audit_creation_method   'Generated by vasp2cif'
_cell_length_a    7.87747371531
_cell_length_b    5.84215377755
_cell_length_c    4.68030660867
_cell_angle_alpha    88.4225527915
_cell_angle_beta    94.6786159652
_cell_angle_gamma    84.0542702332

_symmetry_space_group_name_H-M    'P 1'
loop_
_atom_site_label
_atom_site_type_symbol
_atom_site_fract_x
_atom_site_fract_y
_atom_site_fract_z
_atom_site_occupancy
Cl1   Cl   0.752281549275196   0.691865059405103   0.165204132348826   1.0
Cl2   Cl   0.031398803326262   0.213573515754057   0.809751218545813   1.0
Cl3   Cl   0.238030276333390   0.661879365065424   0.236744404930498   1.0
H4   H   0.675235037935025   0.168560885515049   0.105471189384865   1.0
H5   H   0.309612344167121   0.107796932044920   0.956414056997957   1.0
H6   H   0.476859694528805   0.900736993845562   0.011213787484032   1.0
H7   H   0.535334223416051   0.932322976767303   0.530889567143241   1.0
H8   H   0.341485752750962   0.126150294169719   0.474247951730931   1.0
H9   H   0.506963218967172   0.458671122760606   0.583436852526027   1.0
H10   H   0.701034989689248   0.271290157740395   0.597560275723723   1.0
H11   H   0.494906620741787   0.385727163576114   0.101654713762848   1.0
C12   C   0.464394622703466   0.088376199422512   0.599759216035118   1.0
C13   C   0.558362761337193   0.247536189248827   0.987341251311321   1.0
C14   C   0.571409540603078   0.292732422693135   0.664054805814381   1.0
Sn15   Sn   0.997342953653757   0.678712356723068   0.790357905695537   1.0
N16   N   0.436037610571461   0.061048365268221   0.919158670564869   1.0




# HOIP entry ID:                    0650
# Khazana ID:                       2500
# Organic cation source:            B. Zhou et al., Angew. Chem. Int. Ed. 50, 11441 (2011)
# Label:                            Azetidinium Tin Chloride
# Material class:                   Hybrid organic-inorganic perovskite ( MC_ino )
# Geometry class:                   Bulk crystalline materials ( GC_cry )
# Organic cation chemical formula:  C3H6N2
# Number of atom types:             5
# Total number of atoms:            16
# Atom types:                       C H N  Sn Cl
# Number of each atom:              3 8 1  1 3
# Bandgap, HSE06 (eV):              3.5483
# Bandgap, GGA (eV):                2.5546
# Kpoint for VBM:                   0.5, 0.5, 0.5
# Kpoint for CBM:                   0.5, 0.5, 0
# Dielectric constant, electronic:  3.3028
# Dielectric constant, ionic:       6.2581
# Dielectric constant, total:       9.5609
# Refractive index:                 1.8174
# Atomization energy (eV/atom):     -4.5422
# Relative energy1 (eV/atom):       -0.0776
# Relative energy2 (eV/atom):       0.1742
# Volume of the unit cell (A^3):    213.38
# Density (g/cm^3):                 2.2037
# Tool:                             VASP
# Pseudopotential:                  PAW
# Note:                             ENCUT=400eV, k-spacing_relax=0.20/Angstrom, k-spacing_bandgap=0.15/Angstrom
# Created by:                       C.Kim, T.D.Huan, S.Krishnan, R. Ramprasad