data_1
_audit_creation_method   'Generated by vasp2cif'
_cell_length_a    5.88630335613
_cell_length_b    4.21606674625
_cell_length_c    8.35981924536
_cell_angle_alpha    85.2436840613
_cell_angle_beta    89.7840255166
_cell_angle_gamma    98.0735637878

_symmetry_space_group_name_H-M    'P 1'
loop_
_atom_site_label
_atom_site_type_symbol
_atom_site_fract_x
_atom_site_fract_y
_atom_site_fract_z
_atom_site_occupancy
Cl1   Cl   0.796460668495477   0.801875408491710   0.804098343423953   1.0
Cl2   Cl   0.408587289865388   0.076094129026453   0.097393969949283   1.0
Cl3   Cl   0.881311084428412   0.748296145560535   0.286940841682187   1.0
H4   H   0.018812852384787   0.156509732775461   0.513389042976655   1.0
H5   H   0.316902000328771   0.288043270259435   0.318110173156100   1.0
H6   H   0.382750619070695   0.651065219709273   0.377178391457157   1.0
H7   H   0.589539216242044   0.084821596075036   0.484059960578074   1.0
H8   H   0.657105752984204   0.469906694996098   0.558296468918165   1.0
H9   H   0.369029502788539   0.327405895217393   0.774031542240040   1.0
H10   H   0.292362384677334   0.940822391172716   0.707549175174493   1.0
H11   H   0.090648999608420   0.543926696161775   0.585756911325229   1.0
C12   C   0.519566461505587   0.280766786330293   0.535087135303157   1.0
C13   C   0.156686221496118   0.329550044854410   0.553326464124789   1.0
C14   C   0.332716759205332   0.195218119852925   0.668316373727006   1.0
Sn15   Sn   0.858132530490968   0.225409744771659   0.039484415107544   1.0
N16   N   0.343737656427987   0.413768124744838   0.419490790856253   1.0




# HOIP entry ID:                    0651
# Khazana ID:                       2501
# Organic cation source:            B. Zhou et al., Angew. Chem. Int. Ed. 50, 11441 (2011)
# Label:                            Azetidinium Tin Chloride
# Material class:                   Hybrid organic-inorganic perovskite ( MC_ino )
# Geometry class:                   Bulk crystalline materials ( GC_cry )
# Organic cation chemical formula:  C3H6N2
# Number of atom types:             5
# Total number of atoms:            16
# Atom types:                       C H N  Sn Cl
# Number of each atom:              3 8 1  1 3
# Bandgap, HSE06 (eV):              4.2704
# Bandgap, GGA (eV):                3.3432
# Kpoint for VBM:                   0.5, 0.2, 0.3
# Kpoint for CBM:                   0.3571, 0, 0.5
# Dielectric constant, electronic:  3.3759
# Dielectric constant, ionic:       7.2432
# Dielectric constant, total:       10.6191
# Refractive index:                 1.8374
# Atomization energy (eV/atom):     -4.5401
# Relative energy1 (eV/atom):       -0.0755
# Relative energy2 (eV/atom):       0.1762
# Volume of the unit cell (A^3):    204.68
# Density (g/cm^3):                 2.2974
# Tool:                             VASP
# Pseudopotential:                  PAW
# Note:                             ENCUT=400eV, k-spacing_relax=0.20/Angstrom, k-spacing_bandgap=0.15/Angstrom
# Created by:                       C.Kim, T.D.Huan, S.Krishnan, R. Ramprasad