data_1
_audit_creation_method   'Generated by vasp2cif'
_cell_length_a    8.42250896575
_cell_length_b    4.27077200607
_cell_length_c    6.18530255707
_cell_angle_alpha    71.0771368642
_cell_angle_beta    93.2674629356
_cell_angle_gamma    101.174991429

_symmetry_space_group_name_H-M    'P 1'
loop_
_atom_site_label
_atom_site_type_symbol
_atom_site_fract_x
_atom_site_fract_y
_atom_site_fract_z
_atom_site_occupancy
Cl1   Cl   0.805023815536842   0.774177512767565   0.198067968477801   1.0
Cl2   Cl   0.100433292072822   0.263268567195894   0.525037321626279   1.0
Cl3   Cl   0.273611278562967   0.010141131358793   0.064365261955039   1.0
H4   H   0.546224381355628   0.470729278243731   0.791039393829109   1.0
H5   H   0.330247857156067   0.684615875102558   0.547460569629820   1.0
H6   H   0.325073992661004   0.955046507188250   0.686397017591787   1.0
H7   H   0.549121673629791   0.054444511389725   0.310261823344696   1.0
H8   H   0.507186231500512   0.367787251341340   0.418838526172500   1.0
H9   H   0.709257223300305   0.201071355774836   0.736182623063250   1.0
H10   H   0.766950751022627   0.943338614165143   0.592969367343059   1.0
H11   H   0.506095328340272   0.712901518441598   0.960539903302831   1.0
C12   C   0.535690385014640   0.116821417687334   0.464171935423686   1.0
C13   C   0.534553723047679   0.719672732322202   0.790151063918032   1.0
C14   C   0.664000619502218   0.015491522275809   0.650489953264973   1.0
Sn15   Sn   0.027938508920713   0.437105869153051   0.092208160197757   1.0
N16   N   0.402490938375934   0.850036335592073   0.618909110859377   1.0




# HOIP entry ID:                    0652
# Khazana ID:                       2502
# Organic cation source:            B. Zhou et al., Angew. Chem. Int. Ed. 50, 11441 (2011)
# Label:                            Azetidinium Tin Chloride
# Material class:                   Hybrid organic-inorganic perovskite ( MC_ino )
# Geometry class:                   Bulk crystalline materials ( GC_cry )
# Organic cation chemical formula:  C3H6N2
# Number of atom types:             5
# Total number of atoms:            16
# Atom types:                       C H N  Sn Cl
# Number of each atom:              3 8 1  1 3
# Bandgap, HSE06 (eV):              4.2931
# Bandgap, GGA (eV):                3.3424
# Kpoint for VBM:                   -0.25, 0.2, 0.5
# Kpoint for CBM:                   0.5, 0, 0.3571
# Dielectric constant, electronic:  3.2975
# Dielectric constant, ionic:       17.7815
# Dielectric constant, total:       21.079
# Refractive index:                 1.8159
# Atomization energy (eV/atom):     -4.5403
# Relative energy1 (eV/atom):       -0.0757
# Relative energy2 (eV/atom):       0.176
# Volume of the unit cell (A^3):    206.47
# Density (g/cm^3):                 2.2775
# Tool:                             VASP
# Pseudopotential:                  PAW
# Note:                             ENCUT=400eV, k-spacing_relax=0.20/Angstrom, k-spacing_bandgap=0.15/Angstrom
# Created by:                       C.Kim, T.D.Huan, S.Krishnan, R. Ramprasad