data_1
_audit_creation_method   'Generated by vasp2cif'
_cell_length_a    6.14048390566
_cell_length_b    4.26051085776
_cell_length_c    8.66074285637
_cell_angle_alpha    106.983579781
_cell_angle_beta    95.5378040035
_cell_angle_gamma    71.9418842988

_symmetry_space_group_name_H-M    'P 1'
loop_
_atom_site_label
_atom_site_type_symbol
_atom_site_fract_x
_atom_site_fract_y
_atom_site_fract_z
_atom_site_occupancy
Cl1   Cl   0.192927526518794   0.962415488126560   0.186144085298686   1.0
Cl2   Cl   0.521630904170642   0.161034311039394   0.891195693066884   1.0
Cl3   Cl   0.061120184076394   0.739352463288490   0.718852103500993   1.0
H4   H   0.787445430148921   0.933277636656499   0.447375218033578   1.0
H5   H   0.540322248006134   0.353852714942718   0.660704900431284   1.0
H6   H   0.679066623373551   0.633821743587184   0.666546434122452   1.0
H7   H   0.305124137999293   0.501861218665738   0.440462406943745   1.0
H8   H   0.413298252292719   0.859978443946382   0.482401841871926   1.0
H9   H   0.733701870479948   0.502488657900045   0.283166946295346   1.0
H10   H   0.591389925337793   0.182956414981334   0.225247171093621   1.0
H11   H   0.956427096543941   0.220258815060383   0.487962334497347   1.0
C12   C   0.459189201097466   0.581723398028984   0.454760242355704   1.0
C13   C   0.786124305368737   0.194137624445794   0.458474891989035   1.0
C14   C   0.647565316349869   0.358577030339312   0.328074858742504   1.0
Sn15   Sn   0.087495356368052   0.393510521184602   0.963511053236132   1.0
N16   N   0.612631621867664   0.450423517806300   0.588889818520350   1.0




# HOIP entry ID:                    0653
# Khazana ID:                       2503
# Organic cation source:            B. Zhou et al., Angew. Chem. Int. Ed. 50, 11441 (2011)
# Label:                            Azetidinium Tin Chloride
# Material class:                   Hybrid organic-inorganic perovskite ( MC_ino )
# Geometry class:                   Bulk crystalline materials ( GC_cry )
# Organic cation chemical formula:  C3H6N2
# Number of atom types:             5
# Total number of atoms:            16
# Atom types:                       C H N  Sn Cl
# Number of each atom:              3 8 1  1 3
# Bandgap, HSE06 (eV):              4.2643
# Bandgap, GGA (eV):                3.3174
# Kpoint for VBM:                   0.5, 0.2, 0.1
# Kpoint for CBM:                   0.3333, 0, 0.5
# Dielectric constant, electronic:  3.3129
# Dielectric constant, ionic:       21.0657
# Dielectric constant, total:       24.3786
# Refractive index:                 1.8201
# Atomization energy (eV/atom):     -4.5402
# Relative energy1 (eV/atom):       -0.0756
# Relative energy2 (eV/atom):       0.1762
# Volume of the unit cell (A^3):    206.02
# Density (g/cm^3):                 2.2824
# Tool:                             VASP
# Pseudopotential:                  PAW
# Note:                             ENCUT=400eV, k-spacing_relax=0.20/Angstrom, k-spacing_bandgap=0.15/Angstrom
# Created by:                       C.Kim, T.D.Huan, S.Krishnan, R. Ramprasad