data_1
_audit_creation_method   'Generated by vasp2cif'
_cell_length_a    8.45665838878
_cell_length_b    4.27247642433
_cell_length_c    6.1379082585
_cell_angle_alpha    108.069515109
_cell_angle_beta    93.2851330342
_cell_angle_gamma    78.2590454066

_symmetry_space_group_name_H-M    'P 1'
loop_
_atom_site_label
_atom_site_type_symbol
_atom_site_fract_x
_atom_site_fract_y
_atom_site_fract_z
_atom_site_occupancy
Cl1   Cl   0.185439500243405   0.767690046923114   0.809902254914192   1.0
Cl2   Cl   0.890934068460844   0.261919293931221   0.480860340346382   1.0
Cl3   Cl   0.718289993281516   0.009406261119707   0.941334788579013   1.0
H4   H   0.447967762782611   0.476424073721496   0.219251199695314   1.0
H5   H   0.660397117625728   0.687313653329390   0.466288491705384   1.0
H6   H   0.666233899227471   0.959303700395274   0.326358315339291   1.0
H7   H   0.438085434174752   0.052256851046799   0.698151203425212   1.0
H8   H   0.480592983604346   0.367849138688641   0.590620536393637   1.0
H9   H   0.284550573399052   0.205851389288775   0.266032447847941   1.0
H10   H   0.224185876954358   0.947958718387483   0.408874522463727   1.0
H11   H   0.489498085225072   0.717590093762084   0.047427640146850   1.0
C12   C   0.453409232727680   0.117465657922182   0.544257713649380   1.0
C13   C   0.459121133388663   0.724448648740371   0.218272719212294   1.0
C14   C   0.328000440939078   0.019297917861863   0.354022280004685   1.0
Sn15   Sn   0.962912125371879   0.425031316427400   0.915327824856611   1.0
N16   N   0.588591772593496   0.853413238454195   0.392607721420063   1.0




# HOIP entry ID:                    0654
# Khazana ID:                       2504
# Organic cation source:            B. Zhou et al., Angew. Chem. Int. Ed. 50, 11441 (2011)
# Label:                            Azetidinium Tin Chloride
# Material class:                   Hybrid organic-inorganic perovskite ( MC_ino )
# Geometry class:                   Bulk crystalline materials ( GC_cry )
# Organic cation chemical formula:  C3H6N2
# Number of atom types:             5
# Total number of atoms:            16
# Atom types:                       C H N  Sn Cl
# Number of each atom:              3 8 1  1 3
# Bandgap, HSE06 (eV):              4.2639
# Bandgap, GGA (eV):                3.3161
# Kpoint for VBM:                   0.25, 0.2, 0.5
# Kpoint for CBM:                   0.5, 0, 0.3571
# Dielectric constant, electronic:  3.3064
# Dielectric constant, ionic:       16.6114
# Dielectric constant, total:       19.9178
# Refractive index:                 1.8184
# Atomization energy (eV/atom):     -4.5404
# Relative energy1 (eV/atom):       -0.0758
# Relative energy2 (eV/atom):       0.176
# Volume of the unit cell (A^3):    206.42
# Density (g/cm^3):                 2.278
# Tool:                             VASP
# Pseudopotential:                  PAW
# Note:                             ENCUT=400eV, k-spacing_relax=0.20/Angstrom, k-spacing_bandgap=0.15/Angstrom
# Created by:                       C.Kim, T.D.Huan, S.Krishnan, R. Ramprasad