data_1
_audit_creation_method   'Generated by vasp2cif'
_cell_length_a    8.41953738626
_cell_length_b    4.28888178719
_cell_length_c    6.15539741218
_cell_angle_alpha    71.3078332204
_cell_angle_beta    93.2803834102
_cell_angle_gamma    101.328875785

_symmetry_space_group_name_H-M    'P 1'
loop_
_atom_site_label
_atom_site_type_symbol
_atom_site_fract_x
_atom_site_fract_y
_atom_site_fract_z
_atom_site_occupancy
Cl1   Cl   0.803418979850967   0.791648567524497   0.188756515797998   1.0
Cl2   Cl   0.098460228340933   0.283174542505932   0.516124056535922   1.0
Cl3   Cl   0.271587871723675   0.026700519331015   0.055008248125276   1.0
H4   H   0.542868147199627   0.493960721199457   0.775676022625682   1.0
H5   H   0.329935630411825   0.708692622658624   0.527320205053741   1.0
H6   H   0.321401744535478   0.975146455267172   0.668176853577087   1.0
H7   H   0.552432260979785   0.078445114773643   0.297684215608840   1.0
H8   H   0.507111726587013   0.388064545985699   0.406883891234749   1.0
H9   H   0.703491439114217   0.219151606729390   0.732627496864907   1.0
H10   H   0.766190766225250   0.967591858091971   0.588454348267824   1.0
H11   H   0.498729943248925   0.728896981760485   0.948515154874393   1.0
C12   C   0.535742454514441   0.138674192533671   0.452241332801208   1.0
C13   C   0.530254378282265   0.739956760775463   0.777518339627385   1.0
C14   C   0.661214927518678   0.036607049567536   0.643248125246004   1.0
Sn15   Sn   0.025888552569249   0.460202938940661   0.081787218431217   1.0
N16   N   0.400530948897675   0.871785522354713   0.602397975327769   1.0




# HOIP entry ID:                    0656
# Khazana ID:                       2506
# Organic cation source:            B. Zhou et al., Angew. Chem. Int. Ed. 50, 11441 (2011)
# Label:                            Azetidinium Tin Chloride
# Material class:                   Hybrid organic-inorganic perovskite ( MC_ino )
# Geometry class:                   Bulk crystalline materials ( GC_cry )
# Organic cation chemical formula:  C3H6N2
# Number of atom types:             5
# Total number of atoms:            16
# Atom types:                       C H N  Sn Cl
# Number of each atom:              3 8 1  1 3
# Bandgap, HSE06 (eV):              4.2971
# Bandgap, GGA (eV):                3.3461
# Kpoint for VBM:                   -0.25, 0.2, 0.5
# Kpoint for CBM:                   0.5, 0, 0.3571
# Dielectric constant, electronic:  3.2949
# Dielectric constant, ionic:       11.5718
# Dielectric constant, total:       14.8667
# Refractive index:                 1.8152
# Atomization energy (eV/atom):     -4.5403
# Relative energy1 (eV/atom):       -0.0757
# Relative energy2 (eV/atom):       0.1761
# Volume of the unit cell (A^3):    206.44
# Density (g/cm^3):                 2.2778
# Tool:                             VASP
# Pseudopotential:                  PAW
# Note:                             ENCUT=400eV, k-spacing_relax=0.20/Angstrom, k-spacing_bandgap=0.15/Angstrom
# Created by:                       C.Kim, T.D.Huan, S.Krishnan, R. Ramprasad