data_1
_audit_creation_method   'Generated by vasp2cif'
_cell_length_a    5.99913778785
_cell_length_b    4.26012222822
_cell_length_c    8.59230999723
_cell_angle_alpha    76.4163201065
_cell_angle_beta    93.2911159634
_cell_angle_gamma    103.739646582

_symmetry_space_group_name_H-M    'P 1'
loop_
_atom_site_label
_atom_site_type_symbol
_atom_site_fract_x
_atom_site_fract_y
_atom_site_fract_z
_atom_site_occupancy
Cl1   Cl   0.842117223738064   0.859968964009302   0.800496794144445   1.0
Cl2   Cl   0.502711305339330   0.086038978186553   0.095403508613852   1.0
Cl3   Cl   0.962241863503382   0.682855107155129   0.265133847040210   1.0
H4   H   0.236967832189935   0.903299676020524   0.531954791783996   1.0
H5   H   0.484456868705048   0.282626837968225   0.323066153814355   1.0
H6   H   0.348371497719795   0.576613082266956   0.325050902436466   1.0
H7   H   0.716660149537139   0.398095010110535   0.548993709401650   1.0
H8   H   0.620024083793620   0.771929135726018   0.512872930703830   1.0
H9   H   0.287869846676177   0.477586966756564   0.702120404053387   1.0
H10   H   0.423965172352648   0.141466177573204   0.759725785010796   1.0
H11   H   0.066801512506749   0.201978147864633   0.495585786027425   1.0
C12   C   0.566585397690291   0.503192973230622   0.535242579686821   1.0
C13   C   0.237262374586890   0.160978476946247   0.524913890300685   1.0
C14   C   0.373116784764327   0.316132512251613   0.657874768805359   1.0
Sn15   Sn   0.941227351911061   0.256670613668215   0.023605417152474   1.0
N16   N   0.413730734985530   0.389997340265693   0.398448731024084   1.0




# HOIP entry ID:                    0657
# Khazana ID:                       2507
# Organic cation source:            B. Zhou et al., Angew. Chem. Int. Ed. 50, 11441 (2011)
# Label:                            Azetidinium Tin Chloride
# Material class:                   Hybrid organic-inorganic perovskite ( MC_ino )
# Geometry class:                   Bulk crystalline materials ( GC_cry )
# Organic cation chemical formula:  C3H6N2
# Number of atom types:             5
# Total number of atoms:            16
# Atom types:                       C H N  Sn Cl
# Number of each atom:              3 8 1  1 3
# Bandgap, HSE06 (eV):              4.2391
# Bandgap, GGA (eV):                3.2956
# Kpoint for VBM:                   0.4286, -0.25, 0.2
# Kpoint for CBM:                   0.3571, 0, 0.5
# Dielectric constant, electronic:  3.3076
# Dielectric constant, ionic:       12.774
# Dielectric constant, total:       16.0816
# Refractive index:                 1.8187
# Atomization energy (eV/atom):     -4.5404
# Relative energy1 (eV/atom):       -0.0758
# Relative energy2 (eV/atom):       0.176
# Volume of the unit cell (A^3):    207.34
# Density (g/cm^3):                 2.2679
# Tool:                             VASP
# Pseudopotential:                  PAW
# Note:                             ENCUT=400eV, k-spacing_relax=0.20/Angstrom, k-spacing_bandgap=0.15/Angstrom
# Created by:                       C.Kim, T.D.Huan, S.Krishnan, R. Ramprasad