data_1
_audit_creation_method   'Generated by vasp2cif'
_cell_length_a    4.19099069425
_cell_length_b    5.77974441337
_cell_length_c    8.51246035796
_cell_angle_alpha    91.594090745
_cell_angle_beta    89.7044348675
_cell_angle_gamma    96.2937002066

_symmetry_space_group_name_H-M    'P 1'
loop_
_atom_site_label
_atom_site_type_symbol
_atom_site_fract_x
_atom_site_fract_y
_atom_site_fract_z
_atom_site_occupancy
Cl1   Cl   0.334039375450281   0.624851347036696   0.134790352921875   1.0
Cl2   Cl   0.011531404214161   0.057886545784228   0.886659713477506   1.0
Cl3   Cl   0.323599796259685   0.599043719043706   0.639706537862509   1.0
H4   H   0.816976147775726   0.996964515070481   0.179169905203281   1.0
H5   H   0.978965373911102   0.824483407926699   0.485602885195014   1.0
H6   H   0.627711791178342   0.779946726161825   0.393279854407147   1.0
H7   H   0.443674066011631   0.091550200346674   0.544513425866427   1.0
H8   H   0.838444134721776   0.160349084991331   0.617801869821051   1.0
H9   H   0.974202517563164   0.418550549910357   0.396231674261166   1.0
H10   H   0.596566698990578   0.334020671456493   0.305905166962788   1.0
H11   H   0.189583348622961   0.071248607243916   0.275567137131233   1.0
C12   C   0.695704595787632   0.121710389508308   0.512290063670449   1.0
C13   C   0.930834076134197   0.062550035585431   0.287898607575457   1.0
C14   C   0.794428434108113   0.272989379520752   0.369416690196395   1.0
Sn15   Sn   0.874466949185567   0.603281884377616   0.893776185098460   1.0
N16   N   0.810541290085105   0.905482936035447   0.425509930349314   1.0




# HOIP entry ID:                    0658
# Khazana ID:                       2508
# Organic cation source:            B. Zhou et al., Angew. Chem. Int. Ed. 50, 11441 (2011)
# Label:                            Azetidinium Tin Chloride
# Material class:                   Hybrid organic-inorganic perovskite ( MC_ino )
# Geometry class:                   Bulk crystalline materials ( GC_cry )
# Organic cation chemical formula:  C3H6N2
# Number of atom types:             5
# Total number of atoms:            16
# Atom types:                       C H N  Sn Cl
# Number of each atom:              3 8 1  1 3
# Bandgap, HSE06 (eV):              3.9654
# Bandgap, GGA (eV):                3.0006
# Kpoint for VBM:                   0.2632, 0.5, 0.2632
# Kpoint for CBM:                   0, 0.5, 0.5
# Dielectric constant, electronic:  3.4554
# Dielectric constant, ionic:       10.1482
# Dielectric constant, total:       13.6035
# Refractive index:                 1.8589
# Atomization energy (eV/atom):     -4.5345
# Relative energy1 (eV/atom):       -0.0699
# Relative energy2 (eV/atom):       0.1819
# Volume of the unit cell (A^3):    204.87
# Density (g/cm^3):                 2.2953
# Tool:                             VASP
# Pseudopotential:                  PAW
# Note:                             ENCUT=400eV, k-spacing_relax=0.20/Angstrom, k-spacing_bandgap=0.15/Angstrom
# Created by:                       C.Kim, T.D.Huan, S.Krishnan, R. Ramprasad