data_1
_audit_creation_method   'Generated by vasp2cif'
_cell_length_a    7.76562385707
_cell_length_b    6.1656218682
_cell_length_c    4.69973551268
_cell_angle_alpha    83.4455415003
_cell_angle_beta    83.9536740814
_cell_angle_gamma    82.8868767946

_symmetry_space_group_name_H-M    'P 1'
loop_
_atom_site_label
_atom_site_type_symbol
_atom_site_fract_x
_atom_site_fract_y
_atom_site_fract_z
_atom_site_occupancy
Cl1   Cl   0.147818036711549   0.508908035905080   0.833146392113846   1.0
Cl2   Cl   0.862419234923443   0.039366778701350   0.800378616412530   1.0
Cl3   Cl   0.657991419784601   0.563289440286077   0.257593125426460   1.0
H4   H   0.438144203302961   0.857388903657373   0.935654439948173   1.0
H5   H   0.411233647285606   0.336286133987926   0.962307185252548   1.0
H6   H   0.599073148121413   0.161058430809064   0.944756192371756   1.0
H7   H   0.568208980913461   0.059633951608639   0.440836351954950   1.0
H8   H   0.403572925273131   0.290711176946424   0.460666355048268   1.0
H9   H   0.175032516422668   0.061213493665591   0.397255970187345   1.0
H10   H   0.327576885082720   0.821534462977610   0.452873093474501   1.0
H11   H   0.251533323616783   0.058403163428551   0.875368271442603   1.0
C12   C   0.446368048675780   0.139379908935339   0.362955597166575   1.0
C13   C   0.356230104431368   0.999838906689057   0.010474164435308   1.0
C14   C   0.306745149688936   0.985055722901492   0.338998436493831   1.0
Sn15   Sn   0.945950315502564   0.729172723077454   0.234196060950921   1.0
N16   N   0.470792060263058   0.183838766423001   0.034219747320407   1.0




# HOIP entry ID:                    0659
# Khazana ID:                       2509
# Organic cation source:            B. Zhou et al., Angew. Chem. Int. Ed. 50, 11441 (2011)
# Label:                            Azetidinium Tin Chloride
# Material class:                   Hybrid organic-inorganic perovskite ( MC_ino )
# Geometry class:                   Bulk crystalline materials ( GC_cry )
# Organic cation chemical formula:  C3H6N2
# Number of atom types:             5
# Total number of atoms:            16
# Atom types:                       C H N  Sn Cl
# Number of each atom:              3 8 1  1 3
# Bandgap, HSE06 (eV):              3.9311
# Bandgap, GGA (eV):                2.9893
# Kpoint for VBM:                   -0.1, 0.3333, 0.5
# Kpoint for CBM:                   0, 0.5, 0
# Dielectric constant, electronic:  3.0149
# Dielectric constant, ionic:       4.4133
# Dielectric constant, total:       7.4282
# Refractive index:                 1.7363
# Atomization energy (eV/atom):     -4.5291
# Relative energy1 (eV/atom):       -0.0645
# Relative energy2 (eV/atom):       0.1873
# Volume of the unit cell (A^3):    220.88
# Density (g/cm^3):                 2.1289
# Tool:                             VASP
# Pseudopotential:                  PAW
# Note:                             ENCUT=400eV, k-spacing_relax=0.20/Angstrom, k-spacing_bandgap=0.15/Angstrom
# Created by:                       C.Kim, T.D.Huan, S.Krishnan, R. Ramprasad