data_1
_audit_creation_method   'Generated by vasp2cif'
_cell_length_a    5.72470469315
_cell_length_b    6.6311179303
_cell_length_c    5.76970073978
_cell_angle_alpha    90.7090234482
_cell_angle_beta    78.8116028357
_cell_angle_gamma    90.2858114435

_symmetry_space_group_name_H-M    'P 1'
loop_
_atom_site_label
_atom_site_type_symbol
_atom_site_fract_x
_atom_site_fract_y
_atom_site_fract_z
_atom_site_occupancy
Cl1   Cl   0.364336971031911   0.753234682320070   0.076221392393386   1.0
Cl2   Cl   0.843670485133622   0.748173484159175   0.557506594338015   1.0
Cl3   Cl   0.870722725007369   0.133950113392686   0.080964713958615   1.0
H4   H   0.573202718621346   0.057500372763954   0.802194726751544   1.0
H5   H   0.317469087535883   0.892089921968363   0.534800786982615   1.0
H6   H   0.255263463756776   0.525098698726090   0.481423066135882   1.0
H7   H   0.558090825265467   0.440521713159342   0.791736367636851   1.0
H8   H   0.127471874516665   0.179370640486425   0.346468115926520   1.0
C9   C   0.463319544072412   0.343010927161821   0.692469091798863   1.0
C10   C   0.340737718865313   0.050319427686098   0.563363776730974   1.0
C11   C   0.314314111216760   0.384805338606043   0.540709502543329   1.0
Sn12   Sn   0.891517074427824   0.730878335827420   0.094192035211449   1.0
N13   N   0.476331641083313   0.135145691252546   0.702824077985824   1.0
N14   N   0.240411759465410   0.200160652489949   0.462775751606102   1.0




# HOIP entry ID:                    0661
# Khazana ID:                       2511
# Organic cation source:            B.Saparov et al., Chem. Rev. 116, 4558 (2016)
# Label:                            Imidazolium Tin Chloride
# Material class:                   Hybrid organic-inorganic perovskite ( MC_ino )
# Geometry class:                   Bulk crystalline materials ( GC_cry )
# Organic cation chemical formula:  C3H5N2
# Number of atom types:             5
# Total number of atoms:            14
# Atom types:                       C H N  Sn Cl
# Number of each atom:              3 5 2  1 3
# Bandgap, HSE06 (eV):              3.162
# Bandgap, GGA (eV):                2.3972
# Kpoint for VBM:                   0.5, 0.5, 0.5
# Kpoint for CBM:                   -0.3571, 0.5, 0.3571
# Dielectric constant, electronic:  3.5135
# Dielectric constant, ionic:       14.7215
# Dielectric constant, total:       18.235
# Refractive index:                 1.8744
# Atomization energy (eV/atom):     -5.0181
# Relative energy1 (eV/atom):       0.1027
# Relative energy2 (eV/atom):       0.3905
# Volume of the unit cell (A^3):    214.84
# Density (g/cm^3):                 2.2736
# Tool:                             VASP
# Pseudopotential:                  PAW
# Note:                             ENCUT=400eV, k-spacing_relax=0.20/Angstrom, k-spacing_bandgap=0.15/Angstrom
# Created by:                       C.Kim, T.D.Huan, S.Krishnan, R. Ramprasad