data_1
_audit_creation_method   'Generated by vasp2cif'
_cell_length_a    5.92961939994
_cell_length_b    6.18620810445
_cell_length_c    5.85205783722
_cell_angle_alpha    98.105756227
_cell_angle_beta    80.5353619295
_cell_angle_gamma    82.6185779186

_symmetry_space_group_name_H-M    'P 1'
loop_
_atom_site_label
_atom_site_type_symbol
_atom_site_fract_x
_atom_site_fract_y
_atom_site_fract_z
_atom_site_occupancy
Cl1   Cl   0.719359068501291   0.753871242589398   0.921833375172476   1.0
Cl2   Cl   0.137059277683534   0.801360833840228   0.334116932085927   1.0
Cl3   Cl   0.130066850972767   0.193300739982114   0.906536988166081   1.0
H4   H   0.387736399680591   0.053750640543136   0.319387167071795   1.0
H5   H   0.635763746068505   0.993349920681680   0.630299866876001   1.0
H6   H   0.790543122724685   0.572126139424626   0.366685834187805   1.0
H7   H   0.462988056112458   0.396172747400222   0.135752495830580   1.0
H8   H   0.869647433906231   0.306102303924824   0.657140650454011   1.0
C9   C   0.546804475584466   0.343634798782759   0.271964262950434   1.0
C10   C   0.630842678701981   0.125294178506735   0.528555649262564   1.0
C11   C   0.706173443180127   0.430332478914529   0.386349321613494   1.0
Sn12   Sn   0.166823181026608   0.757306510475921   0.866681188731199   1.0
N13   N   0.502026008979435   0.155576063213765   0.364514301701576   1.0
N14   N   0.755346256877374   0.291291401720073   0.544921965896108   1.0




# HOIP entry ID:                    0662
# Khazana ID:                       2512
# Organic cation source:            B.Saparov et al., Chem. Rev. 116, 4558 (2016)
# Label:                            Imidazolium Tin Chloride
# Material class:                   Hybrid organic-inorganic perovskite ( MC_ino )
# Geometry class:                   Bulk crystalline materials ( GC_cry )
# Organic cation chemical formula:  C3H5N2
# Number of atom types:             5
# Total number of atoms:            14
# Atom types:                       C H N  Sn Cl
# Number of each atom:              3 5 2  1 3
# Bandgap, HSE06 (eV):              3.6688
# Bandgap, GGA (eV):                2.8666
# Kpoint for VBM:                   0.5, 0.5, 0.5
# Kpoint for CBM:                   0.5, 0.5, 0.3571
# Dielectric constant, electronic:  3.5306
# Dielectric constant, ionic:       4.9338
# Dielectric constant, total:       8.4643
# Refractive index:                 1.879
# Atomization energy (eV/atom):     -5.0217
# Relative energy1 (eV/atom):       0.0992
# Relative energy2 (eV/atom):       0.3869
# Volume of the unit cell (A^3):    207.08
# Density (g/cm^3):                 2.3588
# Tool:                             VASP
# Pseudopotential:                  PAW
# Note:                             ENCUT=400eV, k-spacing_relax=0.20/Angstrom, k-spacing_bandgap=0.15/Angstrom
# Created by:                       C.Kim, T.D.Huan, S.Krishnan, R. Ramprasad