data_1
_audit_creation_method   'Generated by vasp2cif'
_cell_length_a    5.72683878017
_cell_length_b    4.02671215381
_cell_length_c    9.10900232044
_cell_angle_alpha    88.4863888335
_cell_angle_beta    87.5758968949
_cell_angle_gamma    79.0676407517

_symmetry_space_group_name_H-M    'P 1'
loop_
_atom_site_label
_atom_site_type_symbol
_atom_site_fract_x
_atom_site_fract_y
_atom_site_fract_z
_atom_site_occupancy
Cl1   Cl   0.952263009161378   0.949411359565573   0.792783958687181   1.0
Cl2   Cl   0.513852220509669   0.595261980178094   0.045813289039643   1.0
Cl3   Cl   0.944967801822685   0.928106165217287   0.255773509273368   1.0
H4   H   0.539478633444340   0.547199498114004   0.297169466269253   1.0
H5   H   0.194261270019915   0.241135790090674   0.664549320799750   1.0
H6   H   0.521751028305253   0.518789578502776   0.764370975855890   1.0
H7   H   0.762428914635265   0.718668612072847   0.515121408853005   1.0
H8   H   0.199056544177275   0.254534846870634   0.383974999610963   1.0
C9   C   0.494912120956890   0.494528531108614   0.649228862018454   1.0
C10   C   0.613058705459622   0.592234798159026   0.526922379347617   1.0
C11   C   0.317032664336232   0.356102471032727   0.452147886025252   1.0
Sn12   Sn   0.985227038077731   0.422102753705666   0.025817903397389   1.0
N13   N   0.312281862442873   0.348428964150727   0.599773419110882   1.0
N14   N   0.498358186650869   0.504884651231286   0.406002621711323   1.0




# HOIP entry ID:                    0665
# Khazana ID:                       2515
# Organic cation source:            B.Saparov et al., Chem. Rev. 116, 4558 (2016)
# Label:                            Imidazolium Tin Chloride
# Material class:                   Hybrid organic-inorganic perovskite ( MC_ino )
# Geometry class:                   Bulk crystalline materials ( GC_cry )
# Organic cation chemical formula:  C3H5N2
# Number of atom types:             5
# Total number of atoms:            14
# Atom types:                       C H N  Sn Cl
# Number of each atom:              3 5 2  1 3
# Bandgap, HSE06 (eV):              4.1084
# Bandgap, GGA (eV):                3.2226
# Kpoint for VBM:                   0.5, 0.1, 0.5
# Kpoint for CBM:                   0, 0, 0
# Dielectric constant, electronic:  3.5036
# Dielectric constant, ionic:       11.1486
# Dielectric constant, total:       14.6522
# Refractive index:                 1.8718
# Atomization energy (eV/atom):     -5.0179
# Relative energy1 (eV/atom):       0.103
# Relative energy2 (eV/atom):       0.3907
# Volume of the unit cell (A^3):    206.02
# Density (g/cm^3):                 2.371
# Tool:                             VASP
# Pseudopotential:                  PAW
# Note:                             ENCUT=400eV, k-spacing_relax=0.20/Angstrom, k-spacing_bandgap=0.15/Angstrom
# Created by:                       C.Kim, T.D.Huan, S.Krishnan, R. Ramprasad