data_1
_audit_creation_method   'Generated by vasp2cif'
_cell_length_a    8.85601475345
_cell_length_b    4.07318447211
_cell_length_c    5.81587896589
_cell_angle_alpha    100.761685353
_cell_angle_beta    94.9622821069
_cell_angle_gamma    90.3467005072

_symmetry_space_group_name_H-M    'P 1'
loop_
_atom_site_label
_atom_site_type_symbol
_atom_site_fract_x
_atom_site_fract_y
_atom_site_fract_z
_atom_site_occupancy
Cl1   Cl   0.753315762880424   0.122295433560451   0.006923389305892   1.0
Cl2   Cl   0.008231691246240   0.803891455565869   0.455751427649186   1.0
Cl3   Cl   0.228492836180267   0.138616716619308   0.039022440519987   1.0
H4   H   0.276890722111573   0.829576947954137   0.402530787336243   1.0
H5   H   0.583807743662818   0.352214378121749   0.786875224490434   1.0
H6   H   0.734098747752803   0.533804283474693   0.476876968265755   1.0
H7   H   0.528797207493381   0.863668784991400   0.215969858391413   1.0
H8   H   0.304185058191721   0.519990571953086   0.745963233304029   1.0
C9   C   0.615696290029419   0.582237561397346   0.491537898173055   1.0
C10   C   0.514614118824605   0.743431238118218   0.362725330655296   1.0
C11   C   0.391818828576676   0.573466002656007   0.640796507134425   1.0
Sn12   Sn   0.988006054981911   0.633654961368226   0.995041564747131   1.0
N13   N   0.536524260400790   0.478829937460257   0.662516157014791   1.0
N14   N   0.377150677667523   0.737191726759295   0.460699213012396   1.0




# HOIP entry ID:                    0667
# Khazana ID:                       2517
# Organic cation source:            B.Saparov et al., Chem. Rev. 116, 4558 (2016)
# Label:                            Imidazolium Tin Chloride
# Material class:                   Hybrid organic-inorganic perovskite ( MC_ino )
# Geometry class:                   Bulk crystalline materials ( GC_cry )
# Organic cation chemical formula:  C3H5N2
# Number of atom types:             5
# Total number of atoms:            14
# Atom types:                       C H N  Sn Cl
# Number of each atom:              3 5 2  1 3
# Bandgap, HSE06 (eV):              4.1879
# Bandgap, GGA (eV):                3.2605
# Kpoint for VBM:                   0.5, 0.2, 0.5
# Kpoint for CBM:                   0, 0, 0
# Dielectric constant, electronic:  3.4822
# Dielectric constant, ionic:       14.5762
# Dielectric constant, total:       18.0584
# Refractive index:                 1.8661
# Atomization energy (eV/atom):     -5.0167
# Relative energy1 (eV/atom):       0.1041
# Relative energy2 (eV/atom):       0.3919
# Volume of the unit cell (A^3):    205.28
# Density (g/cm^3):                 2.3795
# Tool:                             VASP
# Pseudopotential:                  PAW
# Note:                             ENCUT=400eV, k-spacing_relax=0.20/Angstrom, k-spacing_bandgap=0.15/Angstrom
# Created by:                       C.Kim, T.D.Huan, S.Krishnan, R. Ramprasad