data_1
_audit_creation_method   'Generated by vasp2cif'
_cell_length_a    5.7248935112
_cell_length_b    4.0255567912
_cell_length_c    9.11140447141
_cell_angle_alpha    91.4359303772
_cell_angle_beta    87.4074106651
_cell_angle_gamma    100.491460227

_symmetry_space_group_name_H-M    'P 1'
loop_
_atom_site_label
_atom_site_type_symbol
_atom_site_fract_x
_atom_site_fract_y
_atom_site_fract_z
_atom_site_occupancy
Cl1   Cl   0.026258551052202   0.392520099147175   0.242593200113686   1.0
Cl2   Cl   0.465427754215694   0.029076808806155   0.988574403213145   1.0
Cl3   Cl   0.033847838323289   0.372424802429706   0.778987095205137   1.0
H4   H   0.432376625488881   0.003835289216781   0.736363174452209   1.0
H5   H   0.786588616006949   0.682462304480737   0.374837361974004   1.0
H6   H   0.461456765974122   0.957204901236463   0.269405450173839   1.0
H7   H   0.214998306669068   0.168856013520390   0.514377404445660   1.0
H8   H   0.774941467804680   0.706560857244090   0.655735496025737   1.0
C9   C   0.485652635379737   0.937638887434172   0.385114282261549   1.0
C10   C   0.364601670228585   0.041073866387066   0.505382896192402   1.0
C11   C   0.658735215800330   0.806170587917868   0.585408191128627   1.0
Sn12   Sn   0.994906389756537   0.861680455421431   0.009604337195276   1.0
N13   N   0.667077646476726   0.792494956968301   0.437814789119333   1.0
N14   N   0.476380516823138   0.958010169789777   0.628301918499472   1.0




# HOIP entry ID:                    0668
# Khazana ID:                       2518
# Organic cation source:            B.Saparov et al., Chem. Rev. 116, 4558 (2016)
# Label:                            Imidazolium Tin Chloride
# Material class:                   Hybrid organic-inorganic perovskite ( MC_ino )
# Geometry class:                   Bulk crystalline materials ( GC_cry )
# Organic cation chemical formula:  C3H5N2
# Number of atom types:             5
# Total number of atoms:            14
# Atom types:                       C H N  Sn Cl
# Number of each atom:              3 5 2  1 3
# Bandgap, HSE06 (eV):              4.1245
# Bandgap, GGA (eV):                3.1997
# Kpoint for VBM:                   0.5, 0.1, 0.5
# Kpoint for CBM:                   0, 0, 0
# Dielectric constant, electronic:  3.5047
# Dielectric constant, ionic:       10.8537
# Dielectric constant, total:       14.3584
# Refractive index:                 1.8721
# Atomization energy (eV/atom):     -5.0182
# Relative energy1 (eV/atom):       0.1026
# Relative energy2 (eV/atom):       0.3904
# Volume of the unit cell (A^3):    206.23
# Density (g/cm^3):                 2.3686
# Tool:                             VASP
# Pseudopotential:                  PAW
# Note:                             ENCUT=400eV, k-spacing_relax=0.20/Angstrom, k-spacing_bandgap=0.15/Angstrom
# Created by:                       C.Kim, T.D.Huan, S.Krishnan, R. Ramprasad