data_1
_audit_creation_method   'Generated by vasp2cif'
_cell_length_a    6.07588807048
_cell_length_b    6.05378683258
_cell_length_c    6.31743422954
_cell_angle_alpha    80.931929929
_cell_angle_beta    89.4952579353
_cell_angle_gamma    95.3252294052

_symmetry_space_group_name_H-M    'P 1'
loop_
_atom_site_label
_atom_site_type_symbol
_atom_site_fract_x
_atom_site_fract_y
_atom_site_fract_z
_atom_site_occupancy
C1   C   0.464118797757512   0.579048394271201   0.333640144171714   1.0
C2   C   0.558570722257649   0.415456678656772   0.205503774806337   1.0
H3   H   0.736629374984036   0.455406708041973   0.175109840004295   1.0
H4   H   0.476667975639885   0.425207513653513   0.051773791246924   1.0
H5   H   0.566627423485460   0.414682868728166   0.633885363287622   1.0
H6   H   0.523623705771536   0.684992281832529   0.636120611599389   1.0
H7   H   0.528949929076332   0.242297414656963   0.288908449648401   1.0
H8   H   0.487863136924508   0.752521981396506   0.251579616617053   1.0
H9   H   0.288924656451099   0.535362839328506   0.374371062914613   1.0
H10   H   0.750171849119036   0.622933045279927   0.517513348795763   1.0
Br11   Br   0.521823050988108   0.018527038970515   0.813217194141949   1.0
Br12   Br   0.068459389412153   0.484680479938517   0.814400308346077   1.0
Br13   Br   0.014572624707504   0.989677421833720   0.338853736587001   1.0
N14   N   0.583458735006177   0.574679858979189   0.544923592041390   1.0
Sn15   Sn   0.024248628418998   0.013115474431983   0.891219165791446   1.0




# HOIP entry ID:                    0669
# Khazana ID:                       2519
# Organic cation source:            B.Saparov et al., Chem. Rev. 116, 4558 (2016)
# Label:                            Ethylammonium Tin Bromide
# Material class:                   Hybrid organic-inorganic perovskite ( MC_ino )
# Geometry class:                   Bulk crystalline materials ( GC_cry )
# Organic cation chemical formula:  CH3CH2NH3
# Number of atom types:             5
# Total number of atoms:            15
# Atom types:                       C H N  Sn Br
# Number of each atom:              2 8 1  1 3
# Bandgap, HSE06 (eV):              2.3125
# Bandgap, GGA (eV):                1.66
# Kpoint for VBM:                   0.5, 0.5, 0.5
# Kpoint for CBM:                   0.5, 0.5, 0.5
# Dielectric constant, electronic:  4.2899
# Dielectric constant, ionic:       12.9572
# Dielectric constant, total:       17.2471
# Refractive index:                 2.0712
# Atomization energy (eV/atom):     -4.2775
# Relative energy1 (eV/atom):       0.01
# Relative energy2 (eV/atom):       0.2174
# Volume of the unit cell (A^3):    228.41
# Density (g/cm^3):                 2.9322
# Tool:                             VASP
# Pseudopotential:                  PAW
# Note:                             ENCUT=400eV, k-spacing_relax=0.20/Angstrom, k-spacing_bandgap=0.15/Angstrom
# Created by:                       C.Kim, T.D.Huan, S.Krishnan, R. Ramprasad