data_1
_audit_creation_method   'Generated by vasp2cif'
_cell_length_a    6.25161350132
_cell_length_b    5.9758202101
_cell_length_c    6.25037946003
_cell_angle_alpha    85.3010762846
_cell_angle_beta    79.4387852533
_cell_angle_gamma    86.3990393521

_symmetry_space_group_name_H-M    'P 1'
loop_
_atom_site_label
_atom_site_type_symbol
_atom_site_fract_x
_atom_site_fract_y
_atom_site_fract_z
_atom_site_occupancy
C1   C   0.569954069365338   0.778463326678924   0.306448373394154   1.0
C2   C   0.538907028024013   0.591790368046979   0.165343163805822   1.0
H3   H   0.695075431924749   0.529113827666883   0.076080569654451   1.0
H4   H   0.437835163295695   0.657481000757748   0.046925535910802   1.0
H5   H   0.640717277213334   0.551450353388738   0.569384029686340   1.0
H6   H   0.718908185999524   0.813431971567766   0.579994684280344   1.0
H7   H   0.456429320364158   0.451063201687305   0.262837704449367   1.0
H8   H   0.655591074168875   0.918599083093106   0.213063965765500   1.0
H9   H   0.415888029819470   0.842502199212959   0.397599825338283   1.0
H10   H   0.863073697864408   0.640282495375814   0.404699240980911   1.0
Br11   Br   0.582166960464704   0.162115399278150   0.774472329046851   1.0
Br12   Br   0.110792499953646   0.667119062169938   0.777059425132109   1.0
Br13   Br   0.053036451480629   0.173261947804711   0.288318074891095   1.0
N14   N   0.707520908758362   0.690076839668855   0.476265675194711   1.0
Sn15   Sn   0.117573901303153   0.183048923602186   0.833227402469298   1.0




# HOIP entry ID:                    0670
# Khazana ID:                       2520
# Organic cation source:            B.Saparov et al., Chem. Rev. 116, 4558 (2016)
# Label:                            Ethylammonium Tin Bromide
# Material class:                   Hybrid organic-inorganic perovskite ( MC_ino )
# Geometry class:                   Bulk crystalline materials ( GC_cry )
# Organic cation chemical formula:  CH3CH2NH3
# Number of atom types:             5
# Total number of atoms:            15
# Atom types:                       C H N  Sn Br
# Number of each atom:              2 8 1  1 3
# Bandgap, HSE06 (eV):              2.2339
# Bandgap, GGA (eV):                1.5308
# Kpoint for VBM:                   0.5, 0.5, 0.5
# Kpoint for CBM:                   0.5, 0.5, 0.4474
# Dielectric constant, electronic:  4.3128
# Dielectric constant, ionic:       10.9835
# Dielectric constant, total:       15.2963
# Refractive index:                 2.0767
# Atomization energy (eV/atom):     -4.276
# Relative energy1 (eV/atom):       0.0115
# Relative energy2 (eV/atom):       0.219
# Volume of the unit cell (A^3):    228.51
# Density (g/cm^3):                 2.9309
# Tool:                             VASP
# Pseudopotential:                  PAW
# Note:                             ENCUT=400eV, k-spacing_relax=0.20/Angstrom, k-spacing_bandgap=0.15/Angstrom
# Created by:                       C.Kim, T.D.Huan, S.Krishnan, R. Ramprasad