data_1
_audit_creation_method   'Generated by vasp2cif'
_cell_length_a    6.087954783
_cell_length_b    4.2858837504
_cell_length_c    8.8819639509
_cell_angle_alpha    97.4113608287
_cell_angle_beta    91.3748336809
_cell_angle_gamma    97.1976709501

_symmetry_space_group_name_H-M    'P 1'
loop_
_atom_site_label
_atom_site_type_symbol
_atom_site_fract_x
_atom_site_fract_y
_atom_site_fract_z
_atom_site_occupancy
C1   C   0.570708273264782   0.732461155590234   0.417815996808338   1.0
C2   C   0.567123439077754   0.550436719670293   0.553991142760460   1.0
H3   H   0.719729025259235   0.442801004433076   0.565003370776222   1.0
H4   H   0.554708805806469   0.714251479287400   0.657168330736207   1.0
H5   H   0.733461772626022   0.405525523700084   0.271727674855863   1.0
H6   H   0.588604143285226   0.631822548908502   0.177305625428633   1.0
H7   H   0.417582822595756   0.837064009924974   0.404731788703596   1.0
H8   H   0.424257311663976   0.366294005146047   0.546033338536511   1.0
H9   H   0.713508278790189   0.915724412142625   0.424488925220908   1.0
H10   H   0.452929879457346   0.338249626188496   0.255494072770648   1.0
Br11   Br   0.529503150626163   0.876694727296247   0.965177765089506   1.0
Br12   Br   0.062807800541107   0.172692646179613   0.222443856661174   1.0
Br13   Br   0.065888129034165   0.077994718062496   0.699642010627268   1.0
N14   N   0.589280980255577   0.511656366281220   0.271844284008772   1.0
Sn15   Sn   0.063446187716273   0.681041057188659   0.935301817015873   1.0




# HOIP entry ID:                    0671
# Khazana ID:                       2521
# Organic cation source:            B.Saparov et al., Chem. Rev. 116, 4558 (2016)
# Label:                            Ethylammonium Tin Bromide
# Material class:                   Hybrid organic-inorganic perovskite ( MC_ino )
# Geometry class:                   Bulk crystalline materials ( GC_cry )
# Organic cation chemical formula:  CH3CH2NH3
# Number of atom types:             5
# Total number of atoms:            15
# Atom types:                       C H N  Sn Br
# Number of each atom:              2 8 1  1 3
# Bandgap, HSE06 (eV):              3.5585
# Bandgap, GGA (eV):                2.7454
# Kpoint for VBM:                   0.5, 0.1667, 0.5
# Kpoint for CBM:                   0.5, 0.0556, 0
# Dielectric constant, electronic:  3.7403
# Dielectric constant, ionic:       6.4228
# Dielectric constant, total:       10.1631
# Refractive index:                 1.934
# Atomization energy (eV/atom):     -4.2687
# Relative energy1 (eV/atom):       0.0188
# Relative energy2 (eV/atom):       0.2263
# Volume of the unit cell (A^3):    227.81
# Density (g/cm^3):                 2.9399
# Tool:                             VASP
# Pseudopotential:                  PAW
# Note:                             ENCUT=400eV, k-spacing_relax=0.20/Angstrom, k-spacing_bandgap=0.15/Angstrom
# Created by:                       C.Kim, T.D.Huan, S.Krishnan, R. Ramprasad