data_1
_audit_creation_method   'Generated by vasp2cif'
_cell_length_a    8.50263019125
_cell_length_b    4.38907653094
_cell_length_c    6.18559959943
_cell_angle_alpha    80.1678263775
_cell_angle_beta    93.0609376434
_cell_angle_gamma    87.7753579036

_symmetry_space_group_name_H-M    'P 1'
loop_
_atom_site_label
_atom_site_type_symbol
_atom_site_fract_x
_atom_site_fract_y
_atom_site_fract_z
_atom_site_occupancy
C1   C   0.466613101148380   0.546830338366475   0.413360126336672   1.0
C2   C   0.410859036166789   0.697146386213062   0.602408952844049   1.0
H3   H   0.389655665805223   0.523021978348764   0.745220330515141   1.0
H4   H   0.497933866029567   0.850322310660717   0.655880996017051   1.0
H5   H   0.636294404886709   0.245512807600083   0.622938378325706   1.0
H6   H   0.715826600589317   0.549570775433053   0.484506049489618   1.0
H7   H   0.388518817646821   0.368431678844854   0.375933352167241   1.0
H8   H   0.300430942395094   0.831653590239144   0.550453435695163   1.0
H9   H   0.476862289015919   0.713580982200745   0.263009601800391   1.0
H10   H   0.662640664566415   0.265692496744696   0.351279374757389   1.0
Br11   Br   0.952498368878124   0.794544775885380   0.558914256412554   1.0
Br12   Br   0.701195901888036   0.107843668113216   0.011766887341093   1.0
Br13   Br   0.218241041993855   0.091911960164298   0.019760767600567   1.0
N14   N   0.629905967253389   0.390121677659592   0.471441492292795   1.0
Sn15   Sn   0.980433331736392   0.632584573525893   0.021975998404482   1.0




# HOIP entry ID:                    0672
# Khazana ID:                       2522
# Organic cation source:            B.Saparov et al., Chem. Rev. 116, 4558 (2016)
# Label:                            Ethylammonium Tin Bromide
# Material class:                   Hybrid organic-inorganic perovskite ( MC_ino )
# Geometry class:                   Bulk crystalline materials ( GC_cry )
# Organic cation chemical formula:  CH3CH2NH3
# Number of atom types:             5
# Total number of atoms:            15
# Atom types:                       C H N  Sn Br
# Number of each atom:              2 8 1  1 3
# Bandgap, HSE06 (eV):              3.6029
# Bandgap, GGA (eV):                2.7527
# Kpoint for VBM:                   0.5, 0.1667, 0.5
# Kpoint for CBM:                   -0.375, 0, 0.4286
# Dielectric constant, electronic:  3.7628
# Dielectric constant, ionic:       8.1589
# Dielectric constant, total:       11.9218
# Refractive index:                 1.9398
# Atomization energy (eV/atom):     -4.271
# Relative energy1 (eV/atom):       0.0164
# Relative energy2 (eV/atom):       0.2239
# Volume of the unit cell (A^3):    226.85
# Density (g/cm^3):                 2.9523
# Tool:                             VASP
# Pseudopotential:                  PAW
# Note:                             ENCUT=400eV, k-spacing_relax=0.20/Angstrom, k-spacing_bandgap=0.15/Angstrom
# Created by:                       C.Kim, T.D.Huan, S.Krishnan, R. Ramprasad