data_1
_audit_creation_method   'Generated by vasp2cif'
_cell_length_a    6.26124350216
_cell_length_b    4.43051107165
_cell_length_c    8.39394711738
_cell_angle_alpha    94.6595664539
_cell_angle_beta    97.8501862125
_cell_angle_gamma    95.1681533277

_symmetry_space_group_name_H-M    'P 1'
loop_
_atom_site_label
_atom_site_type_symbol
_atom_site_fract_x
_atom_site_fract_y
_atom_site_fract_z
_atom_site_occupancy
C1   C   0.409913361245380   0.827016402718179   0.609373772949546   1.0
C2   C   0.565796060119183   0.615691291761422   0.548265922038510   1.0
H3   H   0.480643350426441   0.434221260946010   0.460074899110076   1.0
H4   H   0.681144852562618   0.747790728220352   0.488064644579111   1.0
H5   H   0.162471375263976   0.477303324394448   0.629011739220971   1.0
H6   H   0.143414720073224   0.799889904515332   0.742095180161492   1.0
H7   H   0.495394725703043   0.012941207391791   0.693996161474814   1.0
H8   H   0.657125491414902   0.515539360823574   0.647893698153155   1.0
H9   H   0.311817980175107   0.919235182358868   0.510782688599257   1.0
H10   H   0.332890212181297   0.578992045676827   0.804331828596979   1.0
Br11   Br   0.486645596094853   0.589605418661719   0.087717026597943   1.0
Br12   Br   0.922036916515211   0.132625784585521   0.860828326562263   1.0
Br13   Br   0.961637902588059   0.213499422437444   0.376776683108325   1.0
N14   N   0.251961454332630   0.657454845967116   0.701758000280179   1.0
Sn15   Sn   0.939706001304089   0.669723819541325   0.123549428567301   1.0




# HOIP entry ID:                    0673
# Khazana ID:                       2523
# Organic cation source:            B.Saparov et al., Chem. Rev. 116, 4558 (2016)
# Label:                            Ethylammonium Tin Bromide
# Material class:                   Hybrid organic-inorganic perovskite ( MC_ino )
# Geometry class:                   Bulk crystalline materials ( GC_cry )
# Organic cation chemical formula:  CH3CH2NH3
# Number of atom types:             5
# Total number of atoms:            15
# Atom types:                       C H N  Sn Br
# Number of each atom:              2 8 1  1 3
# Bandgap, HSE06 (eV):              3.372
# Bandgap, GGA (eV):                2.5399
# Kpoint for VBM:                   0.5, 0.1667, 0.5
# Kpoint for CBM:                   -0.4167, 0, 0.4
# Dielectric constant, electronic:  3.8304
# Dielectric constant, ionic:       11.7502
# Dielectric constant, total:       15.5806
# Refractive index:                 1.9572
# Atomization energy (eV/atom):     -4.2709
# Relative energy1 (eV/atom):       0.0166
# Relative energy2 (eV/atom):       0.2241
# Volume of the unit cell (A^3):    228.7
# Density (g/cm^3):                 2.9284
# Tool:                             VASP
# Pseudopotential:                  PAW
# Note:                             ENCUT=400eV, k-spacing_relax=0.20/Angstrom, k-spacing_bandgap=0.15/Angstrom
# Created by:                       C.Kim, T.D.Huan, S.Krishnan, R. Ramprasad