data_1
_audit_creation_method   'Generated by vasp2cif'
_cell_length_a    6.79770509039
_cell_length_b    4.64201715545
_cell_length_c    7.76495935137
_cell_angle_alpha    109.269743395
_cell_angle_beta    89.4049828916
_cell_angle_gamma    85.9246517133

_symmetry_space_group_name_H-M    'P 1'
loop_
_atom_site_label
_atom_site_type_symbol
_atom_site_fract_x
_atom_site_fract_y
_atom_site_fract_z
_atom_site_occupancy
C1   C   0.581987721890281   0.476195998308391   0.489407250949197   1.0
C2   C   0.668584755050037   0.784048282143877   0.565716008136896   1.0
H3   H   0.798196394266882   0.756442555567267   0.642072924742511   1.0
H4   H   0.718921205990445   0.862939367000152   0.456268790171170   1.0
H5   H   0.459714481266879   0.546731373938040   0.252616118406230   1.0
H6   H   0.304416198679467   0.662224516533043   0.434401949508024   1.0
H7   H   0.690697294076292   0.300274617657457   0.405893452100639   1.0
H8   H   0.563737328793567   0.956195570464599   0.658374166022087   1.0
H9   H   0.521097269796833   0.402853597682590   0.597038086681699   1.0
H10   H   0.347812672427518   0.290339815163195   0.317550615471792   1.0
Br11   Br   0.467613142023444   0.784105334236329   0.012932811669254   1.0
Br12   Br   0.974300539892734   0.436114628562326   0.164003417241711   1.0
Br13   Br   0.131018282560685   0.152711375165836   0.611989931478213   1.0
N14   N   0.412937554715463   0.493987486639006   0.365595487196501   1.0
Sn15   Sn   0.071375158569528   0.746915480937965   0.913558990224109   1.0




# HOIP entry ID:                    0675
# Khazana ID:                       2525
# Organic cation source:            B.Saparov et al., Chem. Rev. 116, 4558 (2016)
# Label:                            Ethylammonium Tin Bromide
# Material class:                   Hybrid organic-inorganic perovskite ( MC_ino )
# Geometry class:                   Bulk crystalline materials ( GC_cry )
# Organic cation chemical formula:  CH3CH2NH3
# Number of atom types:             5
# Total number of atoms:            15
# Atom types:                       C H N  Sn Br
# Number of each atom:              2 8 1  1 3
# Bandgap, HSE06 (eV):              3.4957
# Bandgap, GGA (eV):                2.6315
# Kpoint for VBM:                   0.3333, -0.2778, 0.1667
# Kpoint for CBM:                   -0.25, 0, 0.4167
# Dielectric constant, electronic:  3.6174
# Dielectric constant, ionic:       8.7549
# Dielectric constant, total:       12.3724
# Refractive index:                 1.902
# Atomization energy (eV/atom):     -4.2669
# Relative energy1 (eV/atom):       0.0205
# Relative energy2 (eV/atom):       0.228
# Volume of the unit cell (A^3):    230.56
# Density (g/cm^3):                 2.9048
# Tool:                             VASP
# Pseudopotential:                  PAW
# Note:                             ENCUT=400eV, k-spacing_relax=0.20/Angstrom, k-spacing_bandgap=0.15/Angstrom
# Created by:                       C.Kim, T.D.Huan, S.Krishnan, R. Ramprasad