data_1
_audit_creation_method   'Generated by vasp2cif'
_cell_length_a    5.813563534
_cell_length_b    4.20789395918
_cell_length_c    9.40402285939
_cell_angle_alpha    92.9393405246
_cell_angle_beta    84.2074095872
_cell_angle_gamma    96.0025129134

_symmetry_space_group_name_H-M    'P 1'
loop_
_atom_site_label
_atom_site_type_symbol
_atom_site_fract_x
_atom_site_fract_y
_atom_site_fract_z
_atom_site_occupancy
C1   C   0.461809795733633   0.080944364669119   0.469256712036157   1.0
C2   C   0.655432377239483   0.110961458626592   0.568299967927399   1.0
H3   H   0.762302186290315   0.910267421067932   0.550752859845562   1.0
H4   H   0.769030314494785   0.333114079466349   0.552886317152229   1.0
H5   H   0.435053100600857   0.047978419146362   0.244146023666752   1.0
H6   H   0.674614810817484   0.904119982437901   0.290218766790882   1.0
H7   H   0.348139153583258   0.859111463111839   0.481386142318615   1.0
H8   H   0.579701247923866   0.112198364079930   0.679406748419574   1.0
H9   H   0.353119862975982   0.279122655859158   0.485082333302198   1.0
H10   H   0.665286958445599   0.292045989553965   0.289674385671370   1.0
Br11   Br   0.546345088464154   0.336175111984331   0.983877917849488   1.0
Br12   Br   0.033715662621941   0.648082088039409   0.241879852426337   1.0
Br13   Br   0.117211015005888   0.619712962464372   0.741261692732281   1.0
N14   N   0.562912245222820   0.081314513115393   0.313431010548792   1.0
Sn15   Sn   0.065616180579992   0.147001126377490   0.963309269312313   1.0




# HOIP entry ID:                    0676
# Khazana ID:                       2526
# Organic cation source:            B.Saparov et al., Chem. Rev. 116, 4558 (2016)
# Label:                            Ethylammonium Tin Bromide
# Material class:                   Hybrid organic-inorganic perovskite ( MC_ino )
# Geometry class:                   Bulk crystalline materials ( GC_cry )
# Organic cation chemical formula:  CH3CH2NH3
# Number of atom types:             5
# Total number of atoms:            15
# Atom types:                       C H N  Sn Br
# Number of each atom:              2 8 1  1 3
# Bandgap, HSE06 (eV):              3.4549
# Bandgap, GGA (eV):                2.6601
# Kpoint for VBM:                   0.5, 0.2, 0.5
# Kpoint for CBM:                   0.5, 0, 0.5
# Dielectric constant, electronic:  3.8705
# Dielectric constant, ionic:       9.7539
# Dielectric constant, total:       13.6244
# Refractive index:                 1.9673
# Atomization energy (eV/atom):     -4.2611
# Relative energy1 (eV/atom):       0.0264
# Relative energy2 (eV/atom):       0.2339
# Volume of the unit cell (A^3):    227.43
# Density (g/cm^3):                 2.9448
# Tool:                             VASP
# Pseudopotential:                  PAW
# Note:                             ENCUT=400eV, k-spacing_relax=0.20/Angstrom, k-spacing_bandgap=0.15/Angstrom
# Created by:                       C.Kim, T.D.Huan, S.Krishnan, R. Ramprasad