data_1
_audit_creation_method   'Generated by vasp2cif'
_cell_length_a    6.11301489637
_cell_length_b    4.44943751032
_cell_length_c    8.46798989682
_cell_angle_alpha    90.5952638184
_cell_angle_beta    86.8292048828
_cell_angle_gamma    78.5063558833

_symmetry_space_group_name_H-M    'P 1'
loop_
_atom_site_label
_atom_site_type_symbol
_atom_site_fract_x
_atom_site_fract_y
_atom_site_fract_z
_atom_site_occupancy
C1   C   0.425616123990821   0.546754836582685   0.497893244711432   1.0
C2   C   0.614030392841278   0.710941213238420   0.533512458955975   1.0
H3   H   0.775200930196107   0.551581236305963   0.530363536973938   1.0
H4   H   0.628042602288493   0.887467968612849   0.446975415007307   1.0
H5   H   0.612330119114846   0.280978822534758   0.305834594547020   1.0
H6   H   0.449166195499318   0.595974372005069   0.247259536609625   1.0
H7   H   0.422205841687503   0.352218986839537   0.574833372002150   1.0
H8   H   0.582046378333611   0.818478109128164   0.651265102574333   1.0
H9   H   0.261815914722084   0.699242355582198   0.508033640127498   1.0
H10   H   0.332690767386755   0.301262668807590   0.303033162011213   1.0
Br11   Br   0.554999942828030   0.823974943586446   0.999663277896908   1.0
Br12   Br   0.010289617797447   0.104564222908862   0.253001874339568   1.0
Br13   Br   0.015606269560069   0.119274602170204   0.736187902671920   1.0
N14   N   0.456315395255117   0.421443968589785   0.328295409130955   1.0
Sn15   Sn   0.022583508498568   0.646361693107500   0.971487472440196   1.0




# HOIP entry ID:                    0677
# Khazana ID:                       2527
# Organic cation source:            B.Saparov et al., Chem. Rev. 116, 4558 (2016)
# Label:                            Ethylammonium Tin Bromide
# Material class:                   Hybrid organic-inorganic perovskite ( MC_ino )
# Geometry class:                   Bulk crystalline materials ( GC_cry )
# Organic cation chemical formula:  CH3CH2NH3
# Number of atom types:             5
# Total number of atoms:            15
# Atom types:                       C H N  Sn Br
# Number of each atom:              2 8 1  1 3
# Bandgap, HSE06 (eV):              3.609
# Bandgap, GGA (eV):                2.7441
# Kpoint for VBM:                   0.5, 0.1667, 0.5
# Kpoint for CBM:                   0.4167, 0, 0.375
# Dielectric constant, electronic:  3.7826
# Dielectric constant, ionic:       9.681
# Dielectric constant, total:       13.4636
# Refractive index:                 1.9449
# Atomization energy (eV/atom):     -4.27
# Relative energy1 (eV/atom):       0.0175
# Relative energy2 (eV/atom):       0.225
# Volume of the unit cell (A^3):    225.31
# Density (g/cm^3):                 2.9725
# Tool:                             VASP
# Pseudopotential:                  PAW
# Note:                             ENCUT=400eV, k-spacing_relax=0.20/Angstrom, k-spacing_bandgap=0.15/Angstrom
# Created by:                       C.Kim, T.D.Huan, S.Krishnan, R. Ramprasad