data_1
_audit_creation_method   'Generated by vasp2cif'
_cell_length_a    8.81226581094
_cell_length_b    4.27142725074
_cell_length_c    5.8242499262
_cell_angle_alpha    89.0216757224
_cell_angle_beta    89.99196726
_cell_angle_gamma    91.0918249818

_symmetry_space_group_name_H-M    'P 1'
loop_
_atom_site_label
_atom_site_type_symbol
_atom_site_fract_x
_atom_site_fract_y
_atom_site_fract_z
_atom_site_occupancy
C1   C   0.376810038714054   0.763738967197004   0.413150839172637   1.0
C2   C   0.505867795640075   0.532496539896987   0.417021923062473   1.0
H3   H   0.504927920880372   0.387668116766384   0.263910483465679   1.0
H4   H   0.613217016084750   0.664530918447755   0.419116173772858   1.0
H5   H   0.210859260228440   0.458046534054151   0.265058185081778   1.0
H6   H   0.134288065495191   0.752031334046772   0.406711066779875   1.0
H7   H   0.376598707599728   0.906169652658025   0.566480468768265   1.0
H8   H   0.501649771953961   0.382512484345634   0.571000987999402   1.0
H9   H   0.380263603024424   0.912573606098298   0.259470257699072   1.0
H10   H   0.207498692109458   0.452329685321970   0.553843417111060   1.0
Br11   Br   0.897361246066536   0.177064242003931   0.408120939851472   1.0
Br12   Br   0.176083701184170   0.107435164053617   0.910355138580269   1.0
Br13   Br   0.631358598712074   0.958543142515171   0.913944770865208   1.0
N14   N   0.222402976970508   0.595436110093152   0.409400925919678   1.0
Sn15   Sn   0.868992605336214   0.406763502501187   0.924964421870206   1.0




# HOIP entry ID:                    0678
# Khazana ID:                       2528
# Organic cation source:            B.Saparov et al., Chem. Rev. 116, 4558 (2016)
# Label:                            Ethylammonium Tin Bromide
# Material class:                   Hybrid organic-inorganic perovskite ( MC_ino )
# Geometry class:                   Bulk crystalline materials ( GC_cry )
# Organic cation chemical formula:  CH3CH2NH3
# Number of atom types:             5
# Total number of atoms:            15
# Atom types:                       C H N  Sn Br
# Number of each atom:              2 8 1  1 3
# Bandgap, HSE06 (eV):              3.4048
# Bandgap, GGA (eV):                2.5689
# Kpoint for VBM:                   0.5, -0.0556, 0.0714
# Kpoint for CBM:                   0, 0.5, 0.2143
# Dielectric constant, electronic:  3.9448
# Dielectric constant, ionic:       18.3374
# Dielectric constant, total:       22.2822
# Refractive index:                 1.9862
# Atomization energy (eV/atom):     -4.2599
# Relative energy1 (eV/atom):       0.0276
# Relative energy2 (eV/atom):       0.2351
# Volume of the unit cell (A^3):    219.16
# Density (g/cm^3):                 3.0559
# Tool:                             VASP
# Pseudopotential:                  PAW
# Note:                             ENCUT=400eV, k-spacing_relax=0.20/Angstrom, k-spacing_bandgap=0.15/Angstrom
# Created by:                       C.Kim, T.D.Huan, S.Krishnan, R. Ramprasad