data_1
_audit_creation_method   'Generated by vasp2cif'
_cell_length_a    11.0178161249
_cell_length_b    4.68943131116
_cell_length_c    4.48637599107
_cell_angle_alpha    90.0948795133
_cell_angle_beta    90.0037093538
_cell_angle_gamma    84.6590415265

_symmetry_space_group_name_H-M    'P 1'
loop_
_atom_site_label
_atom_site_type_symbol
_atom_site_fract_x
_atom_site_fract_y
_atom_site_fract_z
_atom_site_occupancy
C1   C   0.596594148070075   0.713108728831259   0.548067566148113   1.0
C2   C   0.514808884721063   0.470521774760627   0.519475187592576   1.0
H3   H   0.526206526317289   0.324406670079341   0.709073557236707   1.0
H4   H   0.419699789990240   0.559671885875922   0.514389835174740   1.0
H5   H   0.748737752406363   0.458045143893877   0.731454532354043   1.0
H6   H   0.785181853272562   0.764053238109554   0.579314731772477   1.0
H7   H   0.586233129242160   0.860699954750629   0.360440406401615   1.0
H8   H   0.533415104913246   0.349762531944364   0.313113760695543   1.0
H9   H   0.579480209495983   0.834416585108492   0.753801411404098   1.0
H10   H   0.755803253983871   0.485341275682536   0.363539295592112   1.0
Br11   Br   0.075461086539363   0.539166721713535   0.542931578239106   1.0
Br12   Br   0.804568308599706   0.083082697218849   0.052958977893091   1.0
Br13   Br   0.342977655227486   0.003552129034070   0.033528685447770   1.0
N14   N   0.730358462103439   0.599344566958031   0.555267252182716   1.0
Sn15   Sn   0.100143835117216   0.063476096038883   0.037943221865397   1.0




# HOIP entry ID:                    0679
# Khazana ID:                       2529
# Organic cation source:            B.Saparov et al., Chem. Rev. 116, 4558 (2016)
# Label:                            Ethylammonium Tin Bromide
# Material class:                   Hybrid organic-inorganic perovskite ( MC_ino )
# Geometry class:                   Bulk crystalline materials ( GC_cry )
# Organic cation chemical formula:  CH3CH2NH3
# Number of atom types:             5
# Total number of atoms:            15
# Atom types:                       C H N  Sn Br
# Number of each atom:              2 8 1  1 3
# Bandgap, HSE06 (eV):              2.0581
# Bandgap, GGA (eV):                1.3219
# Kpoint for VBM:                   0.5, 0.5, 0
# Kpoint for CBM:                   0.5, 0, 0.5
# Dielectric constant, electronic:  4.0591
# Dielectric constant, ionic:       19.2486
# Dielectric constant, total:       23.3076
# Refractive index:                 2.0147
# Atomization energy (eV/atom):     -4.2573
# Relative energy1 (eV/atom):       0.0302
# Relative energy2 (eV/atom):       0.2377
# Volume of the unit cell (A^3):    230.79
# Density (g/cm^3):                 2.9019
# Tool:                             VASP
# Pseudopotential:                  PAW
# Note:                             ENCUT=400eV, k-spacing_relax=0.20/Angstrom, k-spacing_bandgap=0.15/Angstrom
# Created by:                       C.Kim, T.D.Huan, S.Krishnan, R. Ramprasad