data_1
_audit_creation_method   'Generated by vasp2cif'
_cell_length_a    9.5018840273
_cell_length_b    4.60256591899
_cell_length_c    5.71880485926
_cell_angle_alpha    83.3921811426
_cell_angle_beta    99.9667078846
_cell_angle_gamma    112.231140281

_symmetry_space_group_name_H-M    'P 1'
loop_
_atom_site_label
_atom_site_type_symbol
_atom_site_fract_x
_atom_site_fract_y
_atom_site_fract_z
_atom_site_occupancy
C1   C   0.618641557584461   0.682074352774691   0.504360576750074   1.0
C2   C   0.492641004683634   0.577684946040826   0.662684246097804   1.0
H3   H   0.388621003652140   0.396390457441100   0.580301055391232   1.0
H4   H   0.530539961632776   0.485725649490760   0.836856595802203   1.0
H5   H   0.701406438851286   0.320615485986309   0.631872069877922   1.0
H6   H   0.751037000811472   0.477353790564216   0.365876226530077   1.0
H7   H   0.581867933818195   0.766038485731151   0.327064153909490   1.0
H8   H   0.463334251211556   0.778254379009581   0.690576500116343   1.0
H9   H   0.724194299587360   0.859359235592358   0.584370004812840   1.0
H10   H   0.568642983078163   0.235912300336594   0.381648890862223   1.0
Br11   Br   0.042432885175813   0.853855189486367   0.548190492037804   1.0
Br12   Br   0.813531231670929   0.209918001661272   0.025583796122064   1.0
Br13   Br   0.334908265891769   0.975571514069429   0.137010651236046   1.0
N14   N   0.662903111265820   0.408766482635933   0.468057529347824   1.0
Sn15   Sn   0.115988071084629   0.405609729179417   0.899867211106098   1.0




# HOIP entry ID:                    0680
# Khazana ID:                       2530
# Organic cation source:            B.Saparov et al., Chem. Rev. 116, 4558 (2016)
# Label:                            Ethylammonium Tin Bromide
# Material class:                   Hybrid organic-inorganic perovskite ( MC_ino )
# Geometry class:                   Bulk crystalline materials ( GC_cry )
# Organic cation chemical formula:  CH3CH2NH3
# Number of atom types:             5
# Total number of atoms:            15
# Atom types:                       C H N  Sn Br
# Number of each atom:              2 8 1  1 3
# Bandgap, HSE06 (eV):              3.325
# Bandgap, GGA (eV):                2.4583
# Kpoint for VBM:                   -0.375, -0.3333, 0.2857
# Kpoint for CBM:                   -0.125, 0, 0.4286
# Dielectric constant, electronic:  3.6657
# Dielectric constant, ionic:       6.8417
# Dielectric constant, total:       10.5074
# Refractive index:                 1.9146
# Atomization energy (eV/atom):     -4.2532
# Relative energy1 (eV/atom):       0.0343
# Relative energy2 (eV/atom):       0.2418
# Volume of the unit cell (A^3):    227.68
# Density (g/cm^3):                 2.9416
# Tool:                             VASP
# Pseudopotential:                  PAW
# Note:                             ENCUT=400eV, k-spacing_relax=0.20/Angstrom, k-spacing_bandgap=0.15/Angstrom
# Created by:                       C.Kim, T.D.Huan, S.Krishnan, R. Ramprasad