data_1
_audit_creation_method   'Generated by vasp2cif'
_cell_length_a    6.23936337224
_cell_length_b    6.23301475959
_cell_length_c    6.9752964184
_cell_angle_alpha    74.1533814394
_cell_angle_beta    88.627203366
_cell_angle_gamma    86.2539588534

_symmetry_space_group_name_H-M    'P 1'
loop_
_atom_site_label
_atom_site_type_symbol
_atom_site_fract_x
_atom_site_fract_y
_atom_site_fract_z
_atom_site_occupancy
C1   C   0.671069069143051   0.672011196991001   0.395415587588886   1.0
C2   C   0.623467705936818   0.448814784949519   0.359905266106345   1.0
C3   C   0.622570982469419   0.463489463435323   0.137501294636053   1.0
H4   H   0.778222456080307   0.511321740122028   0.068537729127726   1.0
H5   H   0.590126351831323   0.301860438274801   0.116307884828522   1.0
H6   H   0.467114608054352   0.397420901642285   0.426009111163786   1.0
H7   H   0.745272594434176   0.320468489514013   0.434492267698900   1.0
H8   H   0.511143897950120   0.603500495298114   0.674583802532887   1.0
H9   H   0.686774673650206   0.802707287196824   0.648955825198684   1.0
H10   H   0.497766798277503   0.586074530123703   0.059952473436908   1.0
H11   H   0.831858977808238   0.722574960136654   0.345467570464855   1.0
H12   H   0.553489678968987   0.806185716229884   0.324976645451258   1.0
H13   H   0.776528782755747   0.537845498282671   0.692075274759013   1.0
Br14   Br   0.725399247861340   0.047706560926940   0.858205875665185   1.0
Br15   Br   0.161108768354772   0.499385409702597   0.774807651775774   1.0
Br16   Br   0.145685964793891   0.059870376249258   0.321537800406979   1.0
N17   N   0.660170515446985   0.653734043830489   0.617036830531113   1.0
Sn18   Sn   0.173308926182820   0.035118107093957   0.933101108627184   1.0




# HOIP entry ID:                    0681
# Khazana ID:                       2531
# Organic cation source:            S.Kataoka et al., J. Am. Chem. Soc. 137, 4158 (2015)
# Label:                            Propylammonium Tin Bromide
# Material class:                   Hybrid organic-inorganic perovskite ( MC_ino )
# Geometry class:                   Bulk crystalline materials ( GC_cry )
# Organic cation chemical formula:  CH3CH2CH2NH3
# Number of atom types:             5
# Total number of atoms:            18
# Atom types:                       C H N  Sn Br
# Number of each atom:              3 10 1  1 3
# Bandgap, HSE06 (eV):              3.2913
# Bandgap, GGA (eV):                2.4915
# Kpoint for VBM:                   0.5, 0.5, 0
# Kpoint for CBM:                   0.5, 0.5, 0.5
# Dielectric constant, electronic:  3.4793
# Dielectric constant, ionic:       3.0355
# Dielectric constant, total:       6.5148
# Refractive index:                 1.8653
# Atomization energy (eV/atom):     -4.4041
# Relative energy1 (eV/atom):       -0.0395
# Relative energy2 (eV/atom):       0.1334
# Volume of the unit cell (A^3):    260.4
# Density (g/cm^3):                 2.6614
# Tool:                             VASP
# Pseudopotential:                  PAW
# Note:                             ENCUT=400eV, k-spacing_relax=0.20/Angstrom, k-spacing_bandgap=0.15/Angstrom
# Created by:                       C.Kim, T.D.Huan, S.Krishnan, R. Ramprasad