data_1
_audit_creation_method   'Generated by vasp2cif'
_cell_length_a    6.10876477478
_cell_length_b    6.14611197176
_cell_length_c    7.21826947458
_cell_angle_alpha    104.296145667
_cell_angle_beta    82.2065413643
_cell_angle_gamma    87.9112812347

_symmetry_space_group_name_H-M    'P 1'
loop_
_atom_site_label
_atom_site_type_symbol
_atom_site_fract_x
_atom_site_fract_y
_atom_site_fract_z
_atom_site_occupancy
C1   C   0.406950622451298   0.690973048623192   0.616235636355704   1.0
C2   C   0.318707788703108   0.501534339150396   0.700813078177191   1.0
C3   C   0.410168511021176   0.504334246237427   0.888433206027599   1.0
H4   H   0.344810694657369   0.654300795043468   0.002017297271330   1.0
H5   H   0.365034643105794   0.356286177663918   0.938489261198491   1.0
H6   H   0.369188751448213   0.339898439928440   0.595680953481171   1.0
H7   H   0.136652801431047   0.516603727670116   0.726109058323317   1.0
H8   H   0.367805769806758   0.525874326045937   0.330486069127346   1.0
H9   H   0.383001859301103   0.804399785076029   0.362350154798300   1.0
H10   H   0.591115630199809   0.502392950329472   0.866316484583287   1.0
H11   H   0.353317138736266   0.857960017717325   0.710458442426074   1.0
H12   H   0.587347128534383   0.676568631611474   0.584106716591862   1.0
H13   H   0.151313709231168   0.703781045504400   0.446683373557889   1.0
Br14   Br   0.420881965481570   0.099521733542630   0.197691858517984   1.0
Br15   Br   0.867948287501584   0.554505749639731   0.199526660751253   1.0
Br16   Br   0.884620342482719   0.058998204186601   0.692674504843161   1.0
N17   N   0.322051031974340   0.681008000610376   0.426340600731550   1.0
Sn18   Sn   0.889483323932261   0.082948781419056   0.081336643236519   1.0




# HOIP entry ID:                    0682
# Khazana ID:                       2532
# Organic cation source:            S.Kataoka et al., J. Am. Chem. Soc. 137, 4158 (2015)
# Label:                            Propylammonium Tin Bromide
# Material class:                   Hybrid organic-inorganic perovskite ( MC_ino )
# Geometry class:                   Bulk crystalline materials ( GC_cry )
# Organic cation chemical formula:  CH3CH2CH2NH3
# Number of atom types:             5
# Total number of atoms:            18
# Atom types:                       C H N  Sn Br
# Number of each atom:              3 10 1  1 3
# Bandgap, HSE06 (eV):              3.2232
# Bandgap, GGA (eV):                2.4237
# Kpoint for VBM:                   0.5, 0.5, 0
# Kpoint for CBM:                   -0.3333, 0.3333, 0.5
# Dielectric constant, electronic:  3.5132
# Dielectric constant, ionic:       3.2333
# Dielectric constant, total:       6.7465
# Refractive index:                 1.8744
# Atomization energy (eV/atom):     -4.4052
# Relative energy1 (eV/atom):       -0.0406
# Relative energy2 (eV/atom):       0.1323
# Volume of the unit cell (A^3):    259.5
# Density (g/cm^3):                 2.6706
# Tool:                             VASP
# Pseudopotential:                  PAW
# Note:                             ENCUT=400eV, k-spacing_relax=0.20/Angstrom, k-spacing_bandgap=0.15/Angstrom
# Created by:                       C.Kim, T.D.Huan, S.Krishnan, R. Ramprasad