data_1
_audit_creation_method   'Generated by vasp2cif'
_cell_length_a    6.1204603085
_cell_length_b    6.15026228157
_cell_length_c    7.26201330226
_cell_angle_alpha    103.717948441
_cell_angle_beta    79.9848917286
_cell_angle_gamma    91.2274838169

_symmetry_space_group_name_H-M    'P 1'
loop_
_atom_site_label
_atom_site_type_symbol
_atom_site_fract_x
_atom_site_fract_y
_atom_site_fract_z
_atom_site_occupancy
C1   C   0.498040177106461   0.614050320857146   0.622040326293927   1.0
C2   C   0.402049514927143   0.439129048143329   0.729783822350313   1.0
C3   C   0.533856488002407   0.429915418636895   0.888877102617677   1.0
H4   H   0.520949703226478   0.589308367154416   0.996209860662923   1.0
H5   H   0.472148639061707   0.298505043946008   0.961095356256799   1.0
H6   H   0.409700303926051   0.274763614754377   0.628655802313872   1.0
H7   H   0.226138985991227   0.477814820988314   0.790192597349041   1.0
H8   H   0.411359218782003   0.444586265183311   0.356399183749609   1.0
H9   H   0.447913970620519   0.719559257909673   0.372414483254907   1.0
H10   H   0.709664558624510   0.393144814847147   0.829301250140375   1.0
H11   H   0.471555946900423   0.784867462567050   0.710564841565748   1.0
H12   H   0.675029528115324   0.585856001258229   0.566799184346131   1.0
H13   H   0.218793036963938   0.633497821051250   0.490148243917105   1.0
Br14   Br   0.481507068490977   0.032569712887174   0.224848537738325   1.0
Br15   Br   0.959524956914230   0.502191563762437   0.201677201604973   1.0
Br16   Br   0.981632783400954   0.964363188313612   0.733542176993872   1.0
N17   N   0.387288768996775   0.601818571507245   0.448408132500070   1.0
Sn18   Sn   0.960786349948840   0.028328706232379   0.125231896344516   1.0




# HOIP entry ID:                    0683
# Khazana ID:                       2533
# Organic cation source:            S.Kataoka et al., J. Am. Chem. Soc. 137, 4158 (2015)
# Label:                            Propylammonium Tin Bromide
# Material class:                   Hybrid organic-inorganic perovskite ( MC_ino )
# Geometry class:                   Bulk crystalline materials ( GC_cry )
# Organic cation chemical formula:  CH3CH2CH2NH3
# Number of atom types:             5
# Total number of atoms:            18
# Atom types:                       C H N  Sn Br
# Number of each atom:              3 10 1  1 3
# Bandgap, HSE06 (eV):              2.9447
# Bandgap, GGA (eV):                2.134
# Kpoint for VBM:                   0.5, 0.5, 0
# Kpoint for CBM:                   0.5, 0.5, 0.5
# Dielectric constant, electronic:  3.6275
# Dielectric constant, ionic:       4.5382
# Dielectric constant, total:       8.1658
# Refractive index:                 1.9046
# Atomization energy (eV/atom):     -4.4067
# Relative energy1 (eV/atom):       -0.042
# Relative energy2 (eV/atom):       0.1309
# Volume of the unit cell (A^3):    261.46
# Density (g/cm^3):                 2.6506
# Tool:                             VASP
# Pseudopotential:                  PAW
# Note:                             ENCUT=400eV, k-spacing_relax=0.20/Angstrom, k-spacing_bandgap=0.15/Angstrom
# Created by:                       C.Kim, T.D.Huan, S.Krishnan, R. Ramprasad