data_1
_audit_creation_method   'Generated by vasp2cif'
_cell_length_a    6.38259925947
_cell_length_b    6.13328938836
_cell_length_c    6.44055350866
_cell_angle_alpha    97.7249631037
_cell_angle_beta    81.2515408629
_cell_angle_gamma    96.1210947179

_symmetry_space_group_name_H-M    'P 1'
loop_
_atom_site_label
_atom_site_type_symbol
_atom_site_fract_x
_atom_site_fract_y
_atom_site_fract_z
_atom_site_occupancy
C1   C   0.503793481870468   0.576552986198654   0.616118045860854   1.0
C2   C   0.503393088927207   0.428846461024811   0.789021563011724   1.0
C3   C   0.606722248099302   0.213228274756052   0.708189160207168   1.0
H4   H   0.769754364938992   0.247659771884371   0.631001956156602   1.0
H5   H   0.612872994236653   0.120059674757182   0.839193440330602   1.0
H6   H   0.339869728871147   0.395650855054562   0.867359330013976   1.0
H7   H   0.592208283153042   0.524792762192488   0.908580974164509   1.0
H8   H   0.388241017674612   0.320494139247733   0.387040799630780   1.0
H9   H   0.353662022298675   0.577871456731832   0.344232350968810   1.0
H10   H   0.517416595183761   0.107037663255527   0.595056454316170   1.0
H11   H   0.449565799236132   0.737782499974996   0.679654074594297   1.0
H12   H   0.660318035091613   0.596918832466937   0.522529272304672   1.0
H13   H   0.197135445862444   0.463020165069108   0.535512353593394   1.0
Br14   Br   0.387293734295792   0.932807354393013   0.187834554625154   1.0
Br15   Br   0.937960352435980   0.377836830088542   0.166091305971001   1.0
Br16   Br   0.015103652033284   0.851483533712239   0.720852151807009   1.0
N17   N   0.351594453085567   0.475389255787732   0.460175873719892   1.0
Sn18   Sn   0.941694702705355   0.911697483404120   0.154226338723303   1.0




# HOIP entry ID:                    0684
# Khazana ID:                       2534
# Organic cation source:            S.Kataoka et al., J. Am. Chem. Soc. 137, 4158 (2015)
# Label:                            Propylammonium Tin Bromide
# Material class:                   Hybrid organic-inorganic perovskite ( MC_ino )
# Geometry class:                   Bulk crystalline materials ( GC_cry )
# Organic cation chemical formula:  CH3CH2CH2NH3
# Number of atom types:             5
# Total number of atoms:            18
# Atom types:                       C H N  Sn Br
# Number of each atom:              3 10 1  1 3
# Bandgap, HSE06 (eV):              2.8335
# Bandgap, GGA (eV):                2.0319
# Kpoint for VBM:                   0.5, 0.5, 0.5
# Kpoint for CBM:                   0.5, 0.5, 0.2368
# Dielectric constant, electronic:  3.9325
# Dielectric constant, ionic:       6.0102
# Dielectric constant, total:       9.9427
# Refractive index:                 1.9831
# Atomization energy (eV/atom):     -4.4076
# Relative energy1 (eV/atom):       -0.043
# Relative energy2 (eV/atom):       0.1299
# Volume of the unit cell (A^3):    245.97
# Density (g/cm^3):                 2.8175
# Tool:                             VASP
# Pseudopotential:                  PAW
# Note:                             ENCUT=400eV, k-spacing_relax=0.20/Angstrom, k-spacing_bandgap=0.15/Angstrom
# Created by:                       C.Kim, T.D.Huan, S.Krishnan, R. Ramprasad