data_1
_audit_creation_method   'Generated by vasp2cif'
_cell_length_a    6.43867584127
_cell_length_b    6.336896459
_cell_length_c    6.30038382112
_cell_angle_alpha    77.6692286699
_cell_angle_beta    89.6266156796
_cell_angle_gamma    82.8353766033

_symmetry_space_group_name_H-M    'P 1'
loop_
_atom_site_label
_atom_site_type_symbol
_atom_site_fract_x
_atom_site_fract_y
_atom_site_fract_z
_atom_site_occupancy
C1   C   0.586784855271226   0.596857013268497   0.361083369353054   1.0
C2   C   0.616507274030504   0.406238251044790   0.246747509555760   1.0
C3   C   0.414296052073929   0.306793124693762   0.223848285217329   1.0
H4   H   0.289776120418097   0.428275827428429   0.137896576614814   1.0
H5   H   0.442745294408631   0.176922480358222   0.134054502467357   1.0
H6   H   0.737968346422853   0.281045650779682   0.332808809254033   1.0
H7   H   0.679916608550251   0.467507244746102   0.086547663593272   1.0
H8   H   0.581458728186391   0.383767722480528   0.671177072870471   1.0
H9   H   0.343084941626842   0.503289857139173   0.583456106009457   1.0
H10   H   0.353865109549730   0.234265631940609   0.381970612890441   1.0
H11   H   0.734097309419468   0.657039575786222   0.384763939874475   1.0
H12   H   0.475198379852301   0.731407937603386   0.275778906062357   1.0
H13   H   0.512681238659248   0.646584155263916   0.675033866386727   1.0
Br14   Br   0.594166318818978   0.955408917097145   0.806865124383044   1.0
Br15   Br   0.013278430131066   0.381841451664528   0.754703224964146   1.0
Br16   Br   0.047553034842153   0.903747537879852   0.296059181459476   1.0
N17   N   0.498772632979247   0.527393607624376   0.587937571605330   1.0
Sn18   Sn   0.040859324759147   0.930314013200750   0.852647677438625   1.0




# HOIP entry ID:                    0685
# Khazana ID:                       2535
# Organic cation source:            S.Kataoka et al., J. Am. Chem. Soc. 137, 4158 (2015)
# Label:                            Propylammonium Tin Bromide
# Material class:                   Hybrid organic-inorganic perovskite ( MC_ino )
# Geometry class:                   Bulk crystalline materials ( GC_cry )
# Organic cation chemical formula:  CH3CH2CH2NH3
# Number of atom types:             5
# Total number of atoms:            18
# Atom types:                       C H N  Sn Br
# Number of each atom:              3 10 1  1 3
# Bandgap, HSE06 (eV):              2.815
# Bandgap, GGA (eV):                2.076
# Kpoint for VBM:                   0.5, 0.5, 0.5
# Kpoint for CBM:                   0.5, 0.5, 0.5
# Dielectric constant, electronic:  3.7831
# Dielectric constant, ionic:       3.6
# Dielectric constant, total:       7.383
# Refractive index:                 1.945
# Atomization energy (eV/atom):     -4.4083
# Relative energy1 (eV/atom):       -0.0437
# Relative energy2 (eV/atom):       0.1292
# Volume of the unit cell (A^3):    249.12
# Density (g/cm^3):                 2.7819
# Tool:                             VASP
# Pseudopotential:                  PAW
# Note:                             ENCUT=400eV, k-spacing_relax=0.20/Angstrom, k-spacing_bandgap=0.15/Angstrom
# Created by:                       C.Kim, T.D.Huan, S.Krishnan, R. Ramprasad