data_1
_audit_creation_method   'Generated by vasp2cif'
_cell_length_a    6.37555248272
_cell_length_b    6.11892963696
_cell_length_c    6.4513225381
_cell_angle_alpha    82.3526272991
_cell_angle_beta    81.1483283248
_cell_angle_gamma    83.4625349249

_symmetry_space_group_name_H-M    'P 1'
loop_
_atom_site_label
_atom_site_type_symbol
_atom_site_fract_x
_atom_site_fract_y
_atom_site_fract_z
_atom_site_occupancy
C1   C   0.531186740797438   0.621273531721329   0.345167980706321   1.0
C2   C   0.531255010861955   0.471648394456480   0.173720335779087   1.0
C3   C   0.419622607109304   0.261211054506617   0.254067084085022   1.0
H4   H   0.254480050400659   0.303324410419343   0.323229095780299   1.0
H5   H   0.417283537248338   0.164844565293571   0.124433954997642   1.0
H6   H   0.695815882581456   0.431057289118797   0.099857967357380   1.0
H7   H   0.448267661748005   0.569750780870734   0.050664497364927   1.0
H8   H   0.836636983271447   0.501241484464927   0.428030709708373   1.0
H9   H   0.642494857049776   0.364388896028906   0.576453633026098   1.0
H10   H   0.500698758719835   0.154452056959244   0.373590126322583   1.0
H11   H   0.587764917571690   0.781199020080770   0.280929908485476   1.0
H12   H   0.373967491072278   0.645613701353909   0.437460503331721   1.0
H13   H   0.680648690561995   0.621835925464474   0.617208068714021   1.0
Br14   Br   0.645028047913918   0.977617474685324   0.774912923762344   1.0
Br15   Br   0.095984052047605   0.424089392929965   0.795072050937861   1.0
Br16   Br   0.016028923559297   0.898760479419217   0.242337949875385   1.0
N17   N   0.681665130332220   0.518171769234186   0.502353180070862   1.0
Sn18   Sn   0.091560657152769   0.955479772992234   0.809890029694522   1.0




# HOIP entry ID:                    0686
# Khazana ID:                       2536
# Organic cation source:            S.Kataoka et al., J. Am. Chem. Soc. 137, 4158 (2015)
# Label:                            Propylammonium Tin Bromide
# Material class:                   Hybrid organic-inorganic perovskite ( MC_ino )
# Geometry class:                   Bulk crystalline materials ( GC_cry )
# Organic cation chemical formula:  CH3CH2CH2NH3
# Number of atom types:             5
# Total number of atoms:            18
# Atom types:                       C H N  Sn Br
# Number of each atom:              3 10 1  1 3
# Bandgap, HSE06 (eV):              2.798
# Bandgap, GGA (eV):                1.9877
# Kpoint for VBM:                   0.5, 0.5, 0.5
# Kpoint for CBM:                   0.5, 0.5, 0.2368
# Dielectric constant, electronic:  3.9595
# Dielectric constant, ionic:       6.6817
# Dielectric constant, total:       10.6412
# Refractive index:                 1.9899
# Atomization energy (eV/atom):     -4.4075
# Relative energy1 (eV/atom):       -0.0428
# Relative energy2 (eV/atom):       0.1301
# Volume of the unit cell (A^3):    245.34
# Density (g/cm^3):                 2.8248
# Tool:                             VASP
# Pseudopotential:                  PAW
# Note:                             ENCUT=400eV, k-spacing_relax=0.20/Angstrom, k-spacing_bandgap=0.15/Angstrom
# Created by:                       C.Kim, T.D.Huan, S.Krishnan, R. Ramprasad