data_1
_audit_creation_method   'Generated by vasp2cif'
_cell_length_a    8.05712677262
_cell_length_b    4.52661406531
_cell_length_c    7.49729981605
_cell_angle_alpha    76.6584474954
_cell_angle_beta    83.391013568
_cell_angle_gamma    74.8201542495

_symmetry_space_group_name_H-M    'P 1'
loop_
_atom_site_label
_atom_site_type_symbol
_atom_site_fract_x
_atom_site_fract_y
_atom_site_fract_z
_atom_site_occupancy
C1   C   0.906036846618463   0.364638738295867   0.381556089211223   1.0
C2   C   0.746460663107364   0.233420163145766   0.430913422711043   1.0
C3   C   0.672163689958772   0.214830245871404   0.254684954193102   1.0
H4   H   0.559953770693717   0.114742053891398   0.290034260110296   1.0
H5   H   0.767860051644504   0.069519415479547   0.174227941085142   1.0
H6   H   0.780564312575670   0.999055670335416   0.519169350677629   1.0
H7   H   0.649345134636143   0.378303373509880   0.510533728088795   1.0
H8   H   0.049839382477337   0.052890038417566   0.600380085403593   1.0
H9   H   0.963010214955126   0.402756546845964   0.647699296825067   1.0
H10   H   0.987159545582486   0.260975550724126   0.274584639224493   1.0
H11   H   0.633442978380891   0.448288981739978   0.167187004651176   1.0
H12   H   0.874264815854048   0.618016052075930   0.334753344036713   1.0
H13   H   0.133175628264141   0.356862185631208   0.498707474733699   1.0
Br14   Br   0.427774004018111   0.911035633365628   0.720148286217267   1.0
Br15   Br   0.962174153342268   0.670412847062849   0.888185742761884   1.0
Br16   Br   0.263167975338590   0.758531924740552   0.282179921137228   1.0
N17   N   0.019450949296243   0.289010484069834   0.542441142263257   1.0
Sn18   Sn   0.311505883256096   0.427930094796999   0.978233316668337   1.0




# HOIP entry ID:                    0687
# Khazana ID:                       2537
# Organic cation source:            S.Kataoka et al., J. Am. Chem. Soc. 137, 4158 (2015)
# Label:                            Propylammonium Tin Bromide
# Material class:                   Hybrid organic-inorganic perovskite ( MC_ino )
# Geometry class:                   Bulk crystalline materials ( GC_cry )
# Organic cation chemical formula:  CH3CH2CH2NH3
# Number of atom types:             5
# Total number of atoms:            18
# Atom types:                       C H N  Sn Br
# Number of each atom:              3 10 1  1 3
# Bandgap, HSE06 (eV):              3.642
# Bandgap, GGA (eV):                2.7553
# Kpoint for VBM:                   0.1, 0.2778, 0.1667
# Kpoint for CBM:                   0.4, 0, 0.4167
# Dielectric constant, electronic:  3.4023
# Dielectric constant, ionic:       4.6425
# Dielectric constant, total:       8.0448
# Refractive index:                 1.8445
# Atomization energy (eV/atom):     -4.3987
# Relative energy1 (eV/atom):       -0.034
# Relative energy2 (eV/atom):       0.1388
# Volume of the unit cell (A^3):    256.34
# Density (g/cm^3):                 2.7036
# Tool:                             VASP
# Pseudopotential:                  PAW
# Note:                             ENCUT=400eV, k-spacing_relax=0.20/Angstrom, k-spacing_bandgap=0.15/Angstrom
# Created by:                       C.Kim, T.D.Huan, S.Krishnan, R. Ramprasad