data_1
_audit_creation_method   'Generated by vasp2cif'
_cell_length_a    7.56124694379
_cell_length_b    4.90248364901
_cell_length_c    9.03658987272
_cell_angle_alpha    85.6414172347
_cell_angle_beta    122.690057491
_cell_angle_gamma    114.581023601

_symmetry_space_group_name_H-M    'P 1'
loop_
_atom_site_label
_atom_site_type_symbol
_atom_site_fract_x
_atom_site_fract_y
_atom_site_fract_z
_atom_site_occupancy
C1   C   0.964119964390164   0.573345407246441   0.428887686100663   1.0
C2   C   0.777626190927529   0.615749603168068   0.432076710620460   1.0
C3   C   0.653568955035172   0.760824880104361   0.275302805324088   1.0
H4   H   0.779208393621220   0.959217092206797   0.263126011255677   1.0
H5   H   0.545666925439481   0.830823123165677   0.293127242395859   1.0
H6   H   0.648256382958137   0.394780661664289   0.425323068368801   1.0
H7   H   0.859524054971778   0.757568873107443   0.560117416590147   1.0
H8   H   0.970372279478399   0.244737873124493   0.598966515391448   1.0
H9   H   0.193882728941947   0.590716863236764   0.705036271099889   1.0
H10   H   0.887566675922469   0.420255125161796   0.307051593938630   1.0
H11   H   0.537789284666543   0.598197800742498   0.148207449818329   1.0
H12   H   0.102645428174477   0.788054588964864   0.441421881311832   1.0
H13   H   0.193750491300917   0.368658203874475   0.573067547777567   1.0
Br14   Br   0.304986257961368   0.026242705629131   0.908075959370076   1.0
Br15   Br   0.654482216010238   0.993155900231289   0.694925681654718   1.0
Br16   Br   0.157494624938554   0.244853272040855   0.236921268985115   1.0
N17   N   0.088332474232115   0.432038617363345   0.586208016119362   1.0
Sn18   Sn   0.941266671029476   0.749609408967348   0.966406873877143   1.0




# HOIP entry ID:                    0689
# Khazana ID:                       2539
# Organic cation source:            S.Kataoka et al., J. Am. Chem. Soc. 137, 4158 (2015)
# Label:                            Propylammonium Tin Bromide
# Material class:                   Hybrid organic-inorganic perovskite ( MC_ino )
# Geometry class:                   Bulk crystalline materials ( GC_cry )
# Organic cation chemical formula:  CH3CH2CH2NH3
# Number of atom types:             5
# Total number of atoms:            18
# Atom types:                       C H N  Sn Br
# Number of each atom:              3 10 1  1 3
# Bandgap, HSE06 (eV):              3.6888
# Bandgap, GGA (eV):                2.7829
# Kpoint for VBM:                   0, -0.3889, 0.1667
# Kpoint for CBM:                   0.4167, 0, 0.0833
# Dielectric constant, electronic:  3.4097
# Dielectric constant, ionic:       3.3511
# Dielectric constant, total:       6.7608
# Refractive index:                 1.8465
# Atomization energy (eV/atom):     -4.3942
# Relative energy1 (eV/atom):       -0.0296
# Relative energy2 (eV/atom):       0.1433
# Volume of the unit cell (A^3):    251.48
# Density (g/cm^3):                 2.7558
# Tool:                             VASP
# Pseudopotential:                  PAW
# Note:                             ENCUT=400eV, k-spacing_relax=0.20/Angstrom, k-spacing_bandgap=0.15/Angstrom
# Created by:                       C.Kim, T.D.Huan, S.Krishnan, R. Ramprasad