data_1
_audit_creation_method   'Generated by vasp2cif'
_cell_length_a    7.89343579444
_cell_length_b    4.74245464274
_cell_length_c    8.78368320394
_cell_angle_alpha    100.957565224
_cell_angle_beta    121.941911323
_cell_angle_gamma    65.1274398817

_symmetry_space_group_name_H-M    'P 1'
loop_
_atom_site_label
_atom_site_type_symbol
_atom_site_fract_x
_atom_site_fract_y
_atom_site_fract_z
_atom_site_occupancy
C1   C   0.167381552243492   0.383754348174317   0.590109313553034   1.0
C2   C   0.261617128246276   0.619533245906050   0.605029334283599   1.0
C3   C   0.429718700590711   0.650588595835814   0.798248495142512   1.0
H4   H   0.353898423914938   0.766967346677619   0.879814598986768   1.0
H5   H   0.512549803241363   0.788183023088868   0.800573088377832   1.0
H6   H   0.333414464722848   0.550881575574597   0.519179984409002   1.0
H7   H   0.129153413574828   0.844983582681414   0.551735132891004   1.0
H8   H   0.876519528246117   0.580947676845737   0.343034628798299   1.0
H9   H   0.852094361743191   0.707965414179930   0.523821364227246   1.0
H10   H   0.230436527762295   0.170940113334012   0.531378368321992   1.0
H11   H   0.552877611712677   0.424307112428787   0.862745160643623   1.0
H12   H   0.198211705492521   0.325647398236963   0.719240978596816   1.0
H13   H   0.857831301019982   0.353168088162713   0.453089977557578   1.0
Br14   Br   0.811949225578614   0.964919255622170   0.147297921046651   1.0
Br15   Br   0.380167165667605   0.983053513485892   0.278166352277568   1.0
Br16   Br   0.862476234820645   0.139784829498011   0.738007135161531   1.0
N17   N   0.922011795626952   0.512843961204985   0.468909592294609   1.0
Sn18   Sn   0.108481055794972   0.675350919062238   0.032308573430412   1.0




# HOIP entry ID:                    0690
# Khazana ID:                       2540
# Organic cation source:            S.Kataoka et al., J. Am. Chem. Soc. 137, 4158 (2015)
# Label:                            Propylammonium Tin Bromide
# Material class:                   Hybrid organic-inorganic perovskite ( MC_ino )
# Geometry class:                   Bulk crystalline materials ( GC_cry )
# Organic cation chemical formula:  CH3CH2CH2NH3
# Number of atom types:             5
# Total number of atoms:            18
# Atom types:                       C H N  Sn Br
# Number of each atom:              3 10 1  1 3
# Bandgap, HSE06 (eV):              3.7385
# Bandgap, GGA (eV):                2.8121
# Kpoint for VBM:                   -0.4, -0.3333, 0.0833
# Kpoint for CBM:                   0.4, 0, 0.0833
# Dielectric constant, electronic:  3.4042
# Dielectric constant, ionic:       4.4649
# Dielectric constant, total:       7.8691
# Refractive index:                 1.8451
# Atomization energy (eV/atom):     -4.393
# Relative energy1 (eV/atom):       -0.0283
# Relative energy2 (eV/atom):       0.1446
# Volume of the unit cell (A^3):    252.92
# Density (g/cm^3):                 2.7401
# Tool:                             VASP
# Pseudopotential:                  PAW
# Note:                             ENCUT=400eV, k-spacing_relax=0.20/Angstrom, k-spacing_bandgap=0.15/Angstrom
# Created by:                       C.Kim, T.D.Huan, S.Krishnan, R. Ramprasad