data_1
_audit_creation_method   'Generated by vasp2cif'
_cell_length_a    9.20473445468
_cell_length_b    4.790275683
_cell_length_c    7.04742208418
_cell_angle_alpha    78.5078295728
_cell_angle_beta    58.068801246
_cell_angle_gamma    95.5333021622

_symmetry_space_group_name_H-M    'P 1'
loop_
_atom_site_label
_atom_site_type_symbol
_atom_site_fract_x
_atom_site_fract_y
_atom_site_fract_z
_atom_site_occupancy
C1   C   0.607911632806055   0.623509380009291   0.972444480609170   1.0
C2   C   0.635561904603469   0.826494440456324   0.753840132489344   1.0
C3   C   0.782407942864308   0.104501617866972   0.651461895966959   1.0
H4   H   0.766851585195014   0.202282964211079   0.786072693439608   1.0
H5   H   0.783688945499469   0.266381171151198   0.517588269107084   1.0
H6   H   0.669229893529753   0.710947350940370   0.621995704800780   1.0
H7   H   0.511749993790261   0.885126534467808   0.796310990336910   1.0
H8   H   0.465871408247699   0.260755119370183   0.953878771092224   1.0
H9   H   0.337928465953843   0.412147270208223   0.157856126968892   1.0
H10   H   0.724877438310865   0.544824520872881   0.934681275405983   1.0
H11   H   0.912268215479912   0.054938726566230   0.569010036307858   1.0
H12   H   0.571256049707292   0.725388349666148   0.111921558353321   1.0
H13   H   0.454452025925129   0.197407134215159   0.205819735503311   1.0
Br14   Br   0.145559254182357   0.732322973013974   0.274313621224528   1.0
Br15   Br   0.367765285668940   0.339466421511730   0.630821757308988   1.0
Br16   Br   0.828999879327863   0.105290584045371   0.135072894391664   1.0
N17   N   0.457873302628262   0.352550936824238   0.078409295046570   1.0
Sn18   Sn   0.091816776279524   0.810454504602871   0.908430761646807   1.0




# HOIP entry ID:                    0691
# Khazana ID:                       2541
# Organic cation source:            S.Kataoka et al., J. Am. Chem. Soc. 137, 4158 (2015)
# Label:                            Propylammonium Tin Bromide
# Material class:                   Hybrid organic-inorganic perovskite ( MC_ino )
# Geometry class:                   Bulk crystalline materials ( GC_cry )
# Organic cation chemical formula:  CH3CH2CH2NH3
# Number of atom types:             5
# Total number of atoms:            18
# Atom types:                       C H N  Sn Br
# Number of each atom:              3 10 1  1 3
# Bandgap, HSE06 (eV):              3.6354
# Bandgap, GGA (eV):                2.744
# Kpoint for VBM:                   0.25, 0.375, 0.5
# Kpoint for CBM:                   0, 0, 0.5
# Dielectric constant, electronic:  3.4391
# Dielectric constant, ionic:       3.6308
# Dielectric constant, total:       7.0699
# Refractive index:                 1.8545
# Atomization energy (eV/atom):     -4.3949
# Relative energy1 (eV/atom):       -0.0303
# Relative energy2 (eV/atom):       0.1426
# Volume of the unit cell (A^3):    250.71
# Density (g/cm^3):                 2.7643
# Tool:                             VASP
# Pseudopotential:                  PAW
# Note:                             ENCUT=400eV, k-spacing_relax=0.20/Angstrom, k-spacing_bandgap=0.15/Angstrom
# Created by:                       C.Kim, T.D.Huan, S.Krishnan, R. Ramprasad