data_1
_audit_creation_method   'Generated by vasp2cif'
_cell_length_a    7.40396180233
_cell_length_b    5.20735519704
_cell_length_c    8.52226547249
_cell_angle_alpha    94.2537481744
_cell_angle_beta    120.969145177
_cell_angle_gamma    66.40877956

_symmetry_space_group_name_H-M    'P 1'
loop_
_atom_site_label
_atom_site_type_symbol
_atom_site_fract_x
_atom_site_fract_y
_atom_site_fract_z
_atom_site_occupancy
C1   C   0.164354952512508   0.419976655750543   0.655687617012146   1.0
C2   C   0.271623024102052   0.587489561130218   0.620382539898884   1.0
C3   C   0.441236461864230   0.654825833537358   0.801050227670938   1.0
H4   H   0.576700073963444   0.462463694319491   0.902414017002092   1.0
H5   H   0.350977624699719   0.797006186729014   0.863891130685175   1.0
H6   H   0.362210621279033   0.466447769395395   0.551744699286622   1.0
H7   H   0.131972667303382   0.784811593437093   0.525008565204400   1.0
H8   H   0.056810903009793   0.248706445877960   0.405178944606334   1.0
H9   H   0.857675965160843   0.568920975450553   0.384686915607679   1.0
H10   H   0.293037216644702   0.209539553689626   0.736686946525654   1.0
H11   H   0.526138752005289   0.758289408235389   0.772010374285962   1.0
H12   H   0.073578305094519   0.532394901559079   0.724981428955456   1.0
H13   H   0.897436655857644   0.281295977349133   0.497371213493163   1.0
Br14   Br   0.734311292590769   0.987680749220794   0.154543651063928   1.0
Br15   Br   0.361305037951857   0.953974380777480   0.326772096636638   1.0
Br16   Br   0.864327068348883   0.113244236753702   0.757995878044896   1.0
N17   N   0.980917470596450   0.376982131690017   0.473151800563040   1.0
Sn18   Sn   0.076985907014803   0.712469945097231   0.070791953456959   1.0




# HOIP entry ID:                    0692
# Khazana ID:                       2542
# Organic cation source:            S.Kataoka et al., J. Am. Chem. Soc. 137, 4158 (2015)
# Label:                            Propylammonium Tin Bromide
# Material class:                   Hybrid organic-inorganic perovskite ( MC_ino )
# Geometry class:                   Bulk crystalline materials ( GC_cry )
# Organic cation chemical formula:  CH3CH2CH2NH3
# Number of atom types:             5
# Total number of atoms:            18
# Atom types:                       C H N  Sn Br
# Number of each atom:              3 10 1  1 3
# Bandgap, HSE06 (eV):              3.8843
# Bandgap, GGA (eV):                2.9496
# Kpoint for VBM:                   0.5, 0.5, 0
# Kpoint for CBM:                   0.5, 0, 0
# Dielectric constant, electronic:  3.3083
# Dielectric constant, ionic:       3.2282
# Dielectric constant, total:       6.5365
# Refractive index:                 1.8189
# Atomization energy (eV/atom):     -4.3933
# Relative energy1 (eV/atom):       -0.0286
# Relative energy2 (eV/atom):       0.1443
# Volume of the unit cell (A^3):    254.53
# Density (g/cm^3):                 2.7228
# Tool:                             VASP
# Pseudopotential:                  PAW
# Note:                             ENCUT=400eV, k-spacing_relax=0.20/Angstrom, k-spacing_bandgap=0.15/Angstrom
# Created by:                       C.Kim, T.D.Huan, S.Krishnan, R. Ramprasad