data_1
_audit_creation_method   'Generated by vasp2cif'
_cell_length_a    6.05498337242
_cell_length_b    6.11976054196
_cell_length_c    9.66123536315
_cell_angle_alpha    60.3200699234
_cell_angle_beta    123.769208178
_cell_angle_gamma    97.1089566456

_symmetry_space_group_name_H-M    'P 1'
loop_
_atom_site_label
_atom_site_type_symbol
_atom_site_fract_x
_atom_site_fract_y
_atom_site_fract_z
_atom_site_occupancy
C1   C   0.888193731248052   0.598633023260682   0.381369473050206   1.0
C2   C   0.710802301957273   0.772102503706208   0.370142281683627   1.0
C3   C   0.538438908050630   0.004776601400486   0.163444115129884   1.0
H4   H   0.668458850247802   0.113939481942836   0.121034821623255   1.0
H5   H   0.414803862124657   0.130124264912830   0.155862236604826   1.0
H6   H   0.581025064646731   0.662737115869824   0.413805631922372   1.0
H7   H   0.840156113350858   0.837978472663657   0.471861403542896   1.0
H8   H   0.967579341593300   0.275829548068003   0.644898692441281   1.0
H9   H   0.212029918490124   0.440337888112317   0.679075867059709   1.0
H10   H   0.766515197975920   0.514584583282492   0.291900802997823   1.0
H11   H   0.404209363559154   0.946078110629060   0.058089774657191   1.0
H12   H   0.019049466064999   0.702208878544255   0.337134651281865   1.0
H13   H   0.185891254805988   0.248347460805505   0.595401229682913   1.0
Br14   Br   0.328256410250901   0.698023971164837   0.847955173781969   1.0
Br15   Br   0.780812840169880   0.220421808745847   0.836174620120687   1.0
Br16   Br   0.260663360362742   0.241880183580626   0.340518330092372   1.0
N17   N   0.076471490151434   0.374269261826129   0.588621916247114   1.0
Sn18   Sn   0.925842524949537   0.595316841484390   0.942318978080110   1.0




# HOIP entry ID:                    0693
# Khazana ID:                       2543
# Organic cation source:            S.Kataoka et al., J. Am. Chem. Soc. 137, 4158 (2015)
# Label:                            Propylammonium Tin Bromide
# Material class:                   Hybrid organic-inorganic perovskite ( MC_ino )
# Geometry class:                   Bulk crystalline materials ( GC_cry )
# Organic cation chemical formula:  CH3CH2CH2NH3
# Number of atom types:             5
# Total number of atoms:            18
# Atom types:                       C H N  Sn Br
# Number of each atom:              3 10 1  1 3
# Bandgap, HSE06 (eV):              2.8383
# Bandgap, GGA (eV):                2.1195
# Kpoint for VBM:                   0.5, 0.5, 0
# Kpoint for CBM:                   -0.4286, -0.4286, 0.4286
# Dielectric constant, electronic:  3.803
# Dielectric constant, ionic:       14.6659
# Dielectric constant, total:       18.4689
# Refractive index:                 1.9501
# Atomization energy (eV/atom):     -4.4012
# Relative energy1 (eV/atom):       -0.0366
# Relative energy2 (eV/atom):       0.1363
# Volume of the unit cell (A^3):    252.8
# Density (g/cm^3):                 2.7414
# Tool:                             VASP
# Pseudopotential:                  PAW
# Note:                             ENCUT=400eV, k-spacing_relax=0.20/Angstrom, k-spacing_bandgap=0.15/Angstrom
# Created by:                       C.Kim, T.D.Huan, S.Krishnan, R. Ramprasad