data_1
_audit_creation_method   'Generated by vasp2cif'
_cell_length_a    7.69957668156
_cell_length_b    6.16118577478
_cell_length_c    6.38269451808
_cell_angle_alpha    81.4040151011
_cell_angle_beta    105.071116654
_cell_angle_gamma    106.613949085

_symmetry_space_group_name_H-M    'P 1'
loop_
_atom_site_label
_atom_site_type_symbol
_atom_site_fract_x
_atom_site_fract_y
_atom_site_fract_z
_atom_site_occupancy
C1   C   0.190972737886355   0.659346541370496   0.508673035991507   1.0
C2   C   0.498431022491722   0.262661248415895   0.477837324445304   1.0
C3   C   0.334434032721582   0.368496868672374   0.428412713598462   1.0
C4   C   0.367263986988149   0.575158756238814   0.556187308817222   1.0
H5   H   0.598928704719654   0.409114290231443   0.195715659193354   1.0
H6   H   0.758160502395363   0.327264400026770   0.394594601118840   1.0
H7   H   0.701738927701356   0.568488707618144   0.408133283325668   1.0
H8   H   0.143192242341534   0.696294406450441   0.333578925162364   1.0
H9   H   0.078568959082688   0.529755808302923   0.566011201492529   1.0
H10   H   0.215224961145452   0.812209681368842   0.589838515753755   1.0
H11   H   0.215685293965663   0.236061562798774   0.467760888659960   1.0
H12   H   0.294894200872044   0.415038487947093   0.252490797131486   1.0
H13   H   0.409406072279680   0.527731656530271   0.731352845739430   1.0
H14   H   0.482090693550738   0.713476258256179   0.513998193994894   1.0
H15   H   0.564063284373589   0.253621330205583   0.650837685404753   1.0
H16   H   0.458783081656904   0.094495767051967   0.419009214975191   1.0
Br17   Br   0.335096278679316   0.022302646237591   0.974265398034802   1.0
Br18   Br   0.853617772356188   0.973787360140683   0.457941991681359   1.0
Br19   Br   0.876023227471897   0.479118565172996   0.944763634928123   1.0
N20   N   0.649393555866702   0.403634132214755   0.362112703997482   1.0
Sn21   Sn   0.957740461453518   0.955011524747931   0.924214076553532   1.0




# HOIP entry ID:                    0694
# Khazana ID:                       2544
# Organic cation source:            H. Hu et al., Sci. Rep. 6, 33546 (2016)
# Label:                            Butylammonium Tin Bromide
# Material class:                   Hybrid organic-inorganic perovskite ( MC_ino )
# Geometry class:                   Bulk crystalline materials ( GC_cry )
# Organic cation chemical formula:  CH3CH2CH2CH2NH3
# Number of atom types:             5
# Total number of atoms:            21
# Atom types:                       C H N  Sn Br
# Number of each atom:              4 12 1  1 3
# Bandgap, HSE06 (eV):              3.1681
# Bandgap, GGA (eV):                2.3568
# Kpoint for VBM:                   0.5, 0.5, 0.5
# Kpoint for CBM:                   0.5, 0.5, 0.5
# Dielectric constant, electronic:  3.4232
# Dielectric constant, ionic:       3.0111
# Dielectric constant, total:       6.4343
# Refractive index:                 1.8502
# Atomization energy (eV/atom):     -4.4998
# Relative energy1 (eV/atom):       -0.08
# Relative energy2 (eV/atom):       0.0682
# Volume of the unit cell (A^3):    279.24
# Density (g/cm^3):                 2.5653
# Tool:                             VASP
# Pseudopotential:                  PAW
# Note:                             ENCUT=400eV, k-spacing_relax=0.20/Angstrom, k-spacing_bandgap=0.15/Angstrom
# Created by:                       C.Kim, T.D.Huan, S.Krishnan, R. Ramprasad