data_1
_audit_creation_method   'Generated by vasp2cif'
_cell_length_a    6.66651545713
_cell_length_b    5.98529414942
_cell_length_c    7.69546257602
_cell_angle_alpha    71.2857312123
_cell_angle_beta    84.3975639463
_cell_angle_gamma    90.2704211137

_symmetry_space_group_name_H-M    'P 1'
loop_
_atom_site_label
_atom_site_type_symbol
_atom_site_fract_x
_atom_site_fract_y
_atom_site_fract_z
_atom_site_occupancy
C1   C   0.470018790916946   0.632735525345389   0.812765256374576   1.0
C2   C   0.487103863123600   0.228827308117957   0.500837280342871   1.0
C3   C   0.412980758444967   0.343153160359549   0.644646924179000   1.0
C4   C   0.557200936807462   0.535198293424912   0.660973749462862   1.0
H5   H   0.345758232595649   0.458841590404454   0.280033579460827   1.0
H6   H   0.545380690475959   0.325805485214076   0.212691184379132   1.0
H7   H   0.579918835062706   0.553289972255179   0.289213048150870   1.0
H8   H   0.324694545111250   0.711200161509112   0.780990030840570   1.0
H9   H   0.443085818616737   0.489279231210951   0.944112628421770   1.0
H10   H   0.571838624225428   0.765227359667406   0.830041622025654   1.0
H11   H   0.393277208306877   0.201393146358683   0.777715851890790   1.0
H12   H   0.263189389267467   0.414264166448405   0.617124250402419   1.0
H13   H   0.705533210623429   0.461675455082080   0.690614480326921   1.0
H14   H   0.582682110669779   0.680896115571628   0.529795035816036   1.0
H15   H   0.640476412338963   0.167880739694823   0.516326778960178   1.0
H16   H   0.386883622760003   0.082192024561756   0.504679714112761   1.0
Br17   Br   0.972174957171603   0.944683793368100   0.684144615703531   1.0
Br18   Br   0.583814189883654   0.993332001656363   0.113664929793579   1.0
Br19   Br   0.002774348064207   0.514178454459866   0.218631867695329   1.0
N20   N   0.490344726252204   0.405044438893810   0.308027530275261   1.0
Sn21   Sn   0.004098729281111   0.997921576395576   0.020049641385086   1.0




# HOIP entry ID:                    0696
# Khazana ID:                       2546
# Organic cation source:            H. Hu et al., Sci. Rep. 6, 33546 (2016)
# Label:                            Butylammonium Tin Bromide
# Material class:                   Hybrid organic-inorganic perovskite ( MC_ino )
# Geometry class:                   Bulk crystalline materials ( GC_cry )
# Organic cation chemical formula:  CH3CH2CH2CH2NH3
# Number of atom types:             5
# Total number of atoms:            21
# Atom types:                       C H N  Sn Br
# Number of each atom:              4 12 1  1 3
# Bandgap, HSE06 (eV):              3.6939
# Bandgap, GGA (eV):                2.8037
# Kpoint for VBM:                   0.5, 0.5, 0
# Kpoint for CBM:                   0.5, 0.5, 0.5
# Dielectric constant, electronic:  3.1191
# Dielectric constant, ionic:       1.9118
# Dielectric constant, total:       5.0309
# Refractive index:                 1.7661
# Atomization energy (eV/atom):     -4.499
# Relative energy1 (eV/atom):       -0.0793
# Relative energy2 (eV/atom):       0.0689
# Volume of the unit cell (A^3):    289.22
# Density (g/cm^3):                 2.4767
# Tool:                             VASP
# Pseudopotential:                  PAW
# Note:                             ENCUT=400eV, k-spacing_relax=0.20/Angstrom, k-spacing_bandgap=0.15/Angstrom
# Created by:                       C.Kim, T.D.Huan, S.Krishnan, R. Ramprasad