data_1
_audit_creation_method   'Generated by vasp2cif'
_cell_length_a    6.11660017757
_cell_length_b    6.4342738687
_cell_length_c    6.4539229702
_cell_angle_alpha    88.2949412985
_cell_angle_beta    95.3368453156
_cell_angle_gamma    79.8729936274

_symmetry_space_group_name_H-M    'P 1'
loop_
_atom_site_label
_atom_site_type_symbol
_atom_site_fract_x
_atom_site_fract_y
_atom_site_fract_z
_atom_site_occupancy
C1   C   0.238914885552610   0.795489621583748   0.528365436519238   1.0
C2   C   0.347137060029077   0.879941512206337   0.347700162266975   1.0
C3   C   0.555404735535575   0.970334037227467   0.414935811779372   1.0
H4   H   0.506510591802517   0.110144745544296   0.503532954964633   1.0
H5   H   0.676215548622480   0.856329351474955   0.515409854357188   1.0
H6   H   0.635016192480322   0.017722668038651   0.281191470245972   1.0
H7   H   0.496768319700251   0.745871486655552   0.084154353202912   1.0
H8   H   0.225897518828006   0.997543827987705   0.251834071698390   1.0
H9   H   0.199360920303896   0.921974724544064   0.635178336854416   1.0
H10   H   0.352715925137396   0.664229729689794   0.615134741466143   1.0
H11   H   0.084936453610865   0.740830895973446   0.475003312152175   1.0
H12   H   0.269060369186462   0.648942321301320   0.134330341796755   1.0
H13   H   0.514444928303071   0.571849679737937   0.281533768783611   1.0
Br14   Br   0.896639143624846   0.363067046535143   0.428810825443961   1.0
Br15   Br   0.872247857045913   0.750590045632826   0.938219643070994   1.0
Br16   Br   0.387820361918287   0.267263006014616   0.908163785522120   1.0
N17   N   0.409502136061200   0.698882729280804   0.201783889231649   1.0
Sn18   Sn   0.919337052257283   0.313742570571321   0.862737240643590   1.0




# HOIP entry ID:                    0698
# Khazana ID:                       2548
# Organic cation source:            C.C.Stoumpos et al., J. Am. Chem. Soc. 137, 6804 (2015)
# Label:                            Isopropylammonium Tin Bromide
# Material class:                   Hybrid organic-inorganic perovskite ( MC_ino )
# Geometry class:                   Bulk crystalline materials ( GC_cry )
# Organic cation chemical formula:  (CH3)2CHNH3
# Number of atom types:             5
# Total number of atoms:            18
# Atom types:                       C H N  Sn Br
# Number of each atom:              3 10 1  1 3
# Bandgap, HSE06 (eV):              2.7862
# Bandgap, GGA (eV):                2.0577
# Kpoint for VBM:                   0.5, 0.5, 0.5
# Kpoint for CBM:                   0.5, 0.5, 0.5
# Dielectric constant, electronic:  3.8461
# Dielectric constant, ionic:       4.4304
# Dielectric constant, total:       8.2764
# Refractive index:                 1.9611
# Atomization energy (eV/atom):     -4.4128
# Relative energy1 (eV/atom):       -0.0422
# Relative energy2 (eV/atom):       0.1307
# Volume of the unit cell (A^3):    248.68
# Density (g/cm^3):                 2.7868
# Tool:                             VASP
# Pseudopotential:                  PAW
# Note:                             ENCUT=400eV, k-spacing_relax=0.20/Angstrom, k-spacing_bandgap=0.15/Angstrom
# Created by:                       C.Kim, T.D.Huan, S.Krishnan, R. Ramprasad