data_1
_audit_creation_method   'Generated by vasp2cif'
_cell_length_a    6.46178507167
_cell_length_b    6.35812476108
_cell_length_c    6.21407224
_cell_angle_alpha    78.804871882
_cell_angle_beta    83.9236462912
_cell_angle_gamma    90.7061134483

_symmetry_space_group_name_H-M    'P 1'
loop_
_atom_site_label
_atom_site_type_symbol
_atom_site_fract_x
_atom_site_fract_y
_atom_site_fract_z
_atom_site_occupancy
C1   C   0.434057985711966   0.643302780045211   0.353463037014713   1.0
C2   C   0.606674635888687   0.754131497992141   0.444150201757310   1.0
C3   C   0.534365462044427   0.846708103796921   0.646746820944145   1.0
H4   H   0.426915604849121   0.974407354919776   0.599435963825073   1.0
H5   H   0.452536538138027   0.724779968215437   0.777567213343509   1.0
H6   H   0.664731078915878   0.914943467893359   0.711178171876327   1.0
H7   H   0.887055596971670   0.655759347645720   0.581802086672205   1.0
H8   H   0.686302489484120   0.878487366302430   0.314635852630744   1.0
H9   H   0.313921269507709   0.758435280285113   0.309875741235402   1.0
H10   H   0.361567766440302   0.508177594135766   0.476896645452868   1.0
H11   H   0.492256265976664   0.583429960855874   0.205852767254136   1.0
H12   H   0.846020648473825   0.542131579125176   0.367165066701126   1.0
H13   H   0.709629918636217   0.457336122421580   0.616745735397359   1.0
Br14   Br   0.535742136433484   0.236425945935089   0.982575136795468   1.0
Br15   Br   0.019020189285612   0.645186593457865   0.970230267292393   1.0
Br16   Br   0.043365979475944   0.131650352207963   0.455288228328101   1.0
N17   N   0.774541942810671   0.590437777283576   0.505432788984486   1.0
Sn18   Sn   0.101024490955709   0.201078907481005   0.997708274494634   1.0




# HOIP entry ID:                    0699
# Khazana ID:                       2549
# Organic cation source:            C.C.Stoumpos et al., J. Am. Chem. Soc. 137, 6804 (2015)
# Label:                            Isopropylammonium Tin Bromide
# Material class:                   Hybrid organic-inorganic perovskite ( MC_ino )
# Geometry class:                   Bulk crystalline materials ( GC_cry )
# Organic cation chemical formula:  (CH3)2CHNH3
# Number of atom types:             5
# Total number of atoms:            18
# Atom types:                       C H N  Sn Br
# Number of each atom:              3 10 1  1 3
# Bandgap, HSE06 (eV):              2.8563
# Bandgap, GGA (eV):                2.1143
# Kpoint for VBM:                   0.5, 0.5, 0.5
# Kpoint for CBM:                   0.5, 0.5, 0.3947
# Dielectric constant, electronic:  3.7886
# Dielectric constant, ionic:       3.6666
# Dielectric constant, total:       7.4551
# Refractive index:                 1.9464
# Atomization energy (eV/atom):     -4.4131
# Relative energy1 (eV/atom):       -0.0425
# Relative energy2 (eV/atom):       0.1304
# Volume of the unit cell (A^3):    248.9
# Density (g/cm^3):                 2.7844
# Tool:                             VASP
# Pseudopotential:                  PAW
# Note:                             ENCUT=400eV, k-spacing_relax=0.20/Angstrom, k-spacing_bandgap=0.15/Angstrom
# Created by:                       C.Kim, T.D.Huan, S.Krishnan, R. Ramprasad