data_1
_audit_creation_method   'Generated by vasp2cif'
_cell_length_a    7.83203600836
_cell_length_b    4.84467016753
_cell_length_c    7.66281880713
_cell_angle_alpha    79.8914993446
_cell_angle_beta    77.0429663042
_cell_angle_gamma    70.118078947

_symmetry_space_group_name_H-M    'P 1'
loop_
_atom_site_label
_atom_site_type_symbol
_atom_site_fract_x
_atom_site_fract_y
_atom_site_fract_z
_atom_site_occupancy
C1   C   0.628141324765316   0.264212746976732   0.320219990256909   1.0
C2   C   0.608149875325566   0.973016892959684   0.421511740139763   1.0
C3   C   0.765347937850272   0.798347820075833   0.523488070713597   1.0
H4   H   0.896084808599120   0.739595702671359   0.429511032730048   1.0
H5   H   0.744193140477186   0.595735272617894   0.598238894380493   1.0
H6   H   0.778747856787554   0.930387624783648   0.619180586332803   1.0
H7   H   0.314192823839726   0.113138620126897   0.494142230866984   1.0
H8   H   0.590844208715197   0.841959770842521   0.328333783305624   1.0
H9   H   0.659800326109966   0.385558860421320   0.409599848105195   1.0
H10   H   0.742143952413201   0.218605601045631   0.205851808847854   1.0
H11   H   0.503684523912021   0.400664414874910   0.267311965615527   1.0
H12   H   0.416717349902619   0.848427352889651   0.642119211261864   1.0
H13   H   0.420064236542274   0.187605013524319   0.642578652297523   1.0
Br14   Br   0.443818914311969   0.424997893256297   0.875975103944910   1.0
Br15   Br   0.001342634539895   0.189460500491030   0.805393684979485   1.0
Br16   Br   0.185846845516721   0.978225390139499   0.271979898624203   1.0
N17   N   0.427335370210969   0.036824573808865   0.558005498668280   1.0
Sn18   Sn   0.076443870180405   0.512555948493969   0.037327998928937   1.0




# HOIP entry ID:                    0703
# Khazana ID:                       2553
# Organic cation source:            C.C.Stoumpos et al., J. Am. Chem. Soc. 137, 6804 (2015)
# Label:                            Isopropylammonium Tin Bromide
# Material class:                   Hybrid organic-inorganic perovskite ( MC_ino )
# Geometry class:                   Bulk crystalline materials ( GC_cry )
# Organic cation chemical formula:  (CH3)2CHNH3
# Number of atom types:             5
# Total number of atoms:            18
# Atom types:                       C H N  Sn Br
# Number of each atom:              3 10 1  1 3
# Bandgap, HSE06 (eV):              3.7258
# Bandgap, GGA (eV):                2.8243
# Kpoint for VBM:                   0.2, 0.3333, 0.2
# Kpoint for CBM:                   0, 0, 0.4
# Dielectric constant, electronic:  3.2447
# Dielectric constant, ionic:       3.1978
# Dielectric constant, total:       6.4424
# Refractive index:                 1.8013
# Atomization energy (eV/atom):     -4.4016
# Relative energy1 (eV/atom):       -0.0309
# Relative energy2 (eV/atom):       0.142
# Volume of the unit cell (A^3):    264.9
# Density (g/cm^3):                 2.6162
# Tool:                             VASP
# Pseudopotential:                  PAW
# Note:                             ENCUT=400eV, k-spacing_relax=0.20/Angstrom, k-spacing_bandgap=0.15/Angstrom
# Created by:                       C.Kim, T.D.Huan, S.Krishnan, R. Ramprasad