data_1
_audit_creation_method   'Generated by vasp2cif'
_cell_length_a    8.29432881284
_cell_length_b    4.65699807756
_cell_length_c    7.35243265911
_cell_angle_alpha    108.297954725
_cell_angle_beta    79.3879408249
_cell_angle_gamma    108.354994274

_symmetry_space_group_name_H-M    'P 1'
loop_
_atom_site_label
_atom_site_type_symbol
_atom_site_fract_x
_atom_site_fract_y
_atom_site_fract_z
_atom_site_occupancy
C1   C   0.664074242479806   0.336379357353074   0.333316456133822   1.0
C2   C   0.601996689590671   0.103447083501777   0.455866949700237   1.0
C3   C   0.732916497588647   0.150936653762564   0.591576755083750   1.0
H4   H   0.855033560271139   0.135123868107556   0.509053043133278   1.0
H5   H   0.693324642294584   0.978213538324773   0.673954003149383   1.0
H6   H   0.754756790773627   0.386231420962140   0.693376630993640   1.0
H7   H   0.343789223827969   0.134143510829503   0.494925774234190   1.0
H8   H   0.568865000302551   0.864064364371714   0.361486211054100   1.0
H9   H   0.725424135241411   0.571014699498363   0.420369609715067   1.0
H10   H   0.758769932978602   0.255719545298284   0.220116417927244   1.0
H11   H   0.561794804500465   0.345264584737031   0.262381961909291   1.0
H12   H   0.381285482254320   0.956298323855385   0.641567713934784   1.0
H13   H   0.449971392237657   0.344626130377605   0.686879751749473   1.0
Br14   Br   0.436685705285889   0.787673945305137   0.944728322901973   1.0
Br15   Br   0.021985092815463   0.004300395571349   0.828151761501132   1.0
Br16   Br   0.190124360203761   0.378862304190001   0.363127583895697   1.0
N17   N   0.433510218920958   0.136141300264228   0.576594899855102   1.0
Sn18   Sn   0.096762228432588   0.657508973689531   0.085156153127812   1.0




# HOIP entry ID:                    0704
# Khazana ID:                       2554
# Organic cation source:            C.C.Stoumpos et al., J. Am. Chem. Soc. 137, 6804 (2015)
# Label:                            Isopropylammonium Tin Bromide
# Material class:                   Hybrid organic-inorganic perovskite ( MC_ino )
# Geometry class:                   Bulk crystalline materials ( GC_cry )
# Organic cation chemical formula:  (CH3)2CHNH3
# Number of atom types:             5
# Total number of atoms:            18
# Atom types:                       C H N  Sn Br
# Number of each atom:              3 10 1  1 3
# Bandgap, HSE06 (eV):              3.4636
# Bandgap, GGA (eV):                2.5888
# Kpoint for VBM:                   0.1, -0.2778, 0.1667
# Kpoint for CBM:                   0, 0, 0.4167
# Dielectric constant, electronic:  3.4783
# Dielectric constant, ionic:       6.3037
# Dielectric constant, total:       9.782
# Refractive index:                 1.865
# Atomization energy (eV/atom):     -4.4032
# Relative energy1 (eV/atom):       -0.0325
# Relative energy2 (eV/atom):       0.1404
# Volume of the unit cell (A^3):    254.77
# Density (g/cm^3):                 2.7202
# Tool:                             VASP
# Pseudopotential:                  PAW
# Note:                             ENCUT=400eV, k-spacing_relax=0.20/Angstrom, k-spacing_bandgap=0.15/Angstrom
# Created by:                       C.Kim, T.D.Huan, S.Krishnan, R. Ramprasad