data_1
_audit_creation_method   'Generated by vasp2cif'
_cell_length_a    7.38851958613
_cell_length_b    4.70912169057
_cell_length_c    8.10861374571
_cell_angle_alpha    105.299196025
_cell_angle_beta    90.2534152009
_cell_angle_gamma    109.410634648

_symmetry_space_group_name_H-M    'P 1'
loop_
_atom_site_label
_atom_site_type_symbol
_atom_site_fract_x
_atom_site_fract_y
_atom_site_fract_z
_atom_site_occupancy
C1   C   0.332819113190567   0.629992287661132   0.321457037581119   1.0
C2   C   0.452723382872605   0.463254965386284   0.385498082489022   1.0
C3   C   0.588299993353054   0.378538652608285   0.255106926084991   1.0
H4   H   0.505435362344457   0.235556410105538   0.131930750628491   1.0
H5   H   0.670022526145949   0.250699196929709   0.296625389476930   1.0
H6   H   0.690840537875992   0.591113651103456   0.232584680359089   1.0
H7   H   0.493579322751948   0.758676375928651   0.645531270489037   1.0
H8   H   0.356604462343562   0.258120307758865   0.418763294821851   1.0
H9   H   0.423012710137137   0.804787017698274   0.262757140158079   1.0
H10   H   0.220760000221020   0.453794436675906   0.223048160502785   1.0
H11   H   0.260542873567303   0.738928198440348   0.423192838549276   1.0
H12   H   0.639556681621734   0.547028007184444   0.608272159207047   1.0
H13   H   0.685364670877384   0.862734748393891   0.539217115263071   1.0
Br14   Br   0.940370806818905   0.330318031669492   0.556081557857361   1.0
Br15   Br   0.825192452452875   0.946163257470054   0.970783047917621   1.0
Br16   Br   0.356556398029497   0.145818392102825   0.796505278271916   1.0
N17   N   0.574495747089479   0.670070498454841   0.555554815633840   1.0
Sn18   Sn   0.085362958306504   0.606325564427991   0.897180454708234   1.0




# HOIP entry ID:                    0705
# Khazana ID:                       2555
# Organic cation source:            C.C.Stoumpos et al., J. Am. Chem. Soc. 137, 6804 (2015)
# Label:                            Isopropylammonium Tin Bromide
# Material class:                   Hybrid organic-inorganic perovskite ( MC_ino )
# Geometry class:                   Bulk crystalline materials ( GC_cry )
# Organic cation chemical formula:  (CH3)2CHNH3
# Number of atom types:             5
# Total number of atoms:            18
# Atom types:                       C H N  Sn Br
# Number of each atom:              3 10 1  1 3
# Bandgap, HSE06 (eV):              3.6373
# Bandgap, GGA (eV):                2.741
# Kpoint for VBM:                   0.2, -0.3333, 0.25
# Kpoint for CBM:                   0.4, 0, 0.0833
# Dielectric constant, electronic:  3.4056
# Dielectric constant, ionic:       7.0232
# Dielectric constant, total:       10.4288
# Refractive index:                 1.8454
# Atomization energy (eV/atom):     -4.4038
# Relative energy1 (eV/atom):       -0.0332
# Relative energy2 (eV/atom):       0.1397
# Volume of the unit cell (A^3):    255.34
# Density (g/cm^3):                 2.7141
# Tool:                             VASP
# Pseudopotential:                  PAW
# Note:                             ENCUT=400eV, k-spacing_relax=0.20/Angstrom, k-spacing_bandgap=0.15/Angstrom
# Created by:                       C.Kim, T.D.Huan, S.Krishnan, R. Ramprasad