data_1
_audit_creation_method   'Generated by vasp2cif'
_cell_length_a    7.77014918746
_cell_length_b    4.43799539323
_cell_length_c    7.76607405377
_cell_angle_alpha    76.4345349486
_cell_angle_beta    78.5260778884
_cell_angle_gamma    90.0887190675

_symmetry_space_group_name_H-M    'P 1'
loop_
_atom_site_label
_atom_site_type_symbol
_atom_site_fract_x
_atom_site_fract_y
_atom_site_fract_z
_atom_site_occupancy
C1   C   0.573424343071636   0.007940052083761   0.295872761580071   1.0
C2   C   0.545404823443491   0.987296454385024   0.498862744045646   1.0
C3   C   0.687002534929590   0.169690203559178   0.548624124743917   1.0
H4   H   0.812103197327502   0.060587816188516   0.520661535339890   1.0
H5   H   0.658852397139846   0.169187353157959   0.692208934059636   1.0
H6   H   0.703267085589992   0.409750176029284   0.467997941068106   1.0
H7   H   0.346524790304002   0.109910776082316   0.700878067165426   1.0
H8   H   0.539139207627009   0.746563208998140   0.575757012265470   1.0
H9   H   0.468789312634009   0.885020812703836   0.260164093786010   1.0
H10   H   0.581005232993007   0.249948551334235   0.218505015126269   1.0
H11   H   0.697699249277527   0.905529040125906   0.252326461194514   1.0
H12   H   0.338914337142597   0.316107220531059   0.493018062664049   1.0
H13   H   0.263981035588948   0.951089395216378   0.556616958083730   1.0
Br14   Br   0.387027166238219   0.442683635814276   0.928465842227780   1.0
Br15   Br   0.947995339721452   0.909062756689188   0.878620459905029   1.0
Br16   Br   0.103885947367594   0.676791304114218   0.395120320666102   1.0
N17   N   0.362741759833590   0.099405865984913   0.566970593829957   1.0
Sn18   Sn   0.042902239770029   0.344455377001793   0.106759072248380   1.0




# HOIP entry ID:                    0706
# Khazana ID:                       2556
# Organic cation source:            C.C.Stoumpos et al., J. Am. Chem. Soc. 137, 6804 (2015)
# Label:                            Isopropylammonium Tin Bromide
# Material class:                   Hybrid organic-inorganic perovskite ( MC_ino )
# Geometry class:                   Bulk crystalline materials ( GC_cry )
# Organic cation chemical formula:  (CH3)2CHNH3
# Number of atom types:             5
# Total number of atoms:            18
# Atom types:                       C H N  Sn Br
# Number of each atom:              3 10 1  1 3
# Bandgap, HSE06 (eV):              3.6822
# Bandgap, GGA (eV):                2.7991
# Kpoint for VBM:                   0.1, 0.2778, 0.1667
# Kpoint for CBM:                   0, 0, 0.4167
# Dielectric constant, electronic:  3.4236
# Dielectric constant, ionic:       6.3468
# Dielectric constant, total:       9.7704
# Refractive index:                 1.8503
# Atomization energy (eV/atom):     -4.4022
# Relative energy1 (eV/atom):       -0.0315
# Relative energy2 (eV/atom):       0.1414
# Volume of the unit cell (A^3):    254.8
# Density (g/cm^3):                 2.7199
# Tool:                             VASP
# Pseudopotential:                  PAW
# Note:                             ENCUT=400eV, k-spacing_relax=0.20/Angstrom, k-spacing_bandgap=0.15/Angstrom
# Created by:                       C.Kim, T.D.Huan, S.Krishnan, R. Ramprasad