data_1
_audit_creation_method   'Generated by vasp2cif'
_cell_length_a    6.56961704163
_cell_length_b    4.38619504992
_cell_length_c    8.83910229046
_cell_angle_alpha    84.4836573887
_cell_angle_beta    83.1741026488
_cell_angle_gamma    96.6929256137

_symmetry_space_group_name_H-M    'P 1'
loop_
_atom_site_label
_atom_site_type_symbol
_atom_site_fract_x
_atom_site_fract_y
_atom_site_fract_z
_atom_site_occupancy
C1   C   0.472069137936380   0.579853727927436   0.657213443972438   1.0
C2   C   0.434093391259452   0.431334012263747   0.512710804481664   1.0
C3   C   0.312939561721969   0.613912148440697   0.407012671168303   1.0
H4   H   0.174675149858047   0.668945620331073   0.475042711724050   1.0
H5   H   0.265491063437608   0.483495074107587   0.315389198987639   1.0
H6   H   0.403444934325250   0.831071584297398   0.353030747499091   1.0
H7   H   0.628010595566870   0.282189309678458   0.328041612898943   1.0
H8   H   0.354749496748880   0.196897983960092   0.543580625774489   1.0
H9   H   0.550887412085231   0.436037202444240   0.732687514405704   1.0
H10   H   0.565361775772494   0.806249802971827   0.630829002620089   1.0
H11   H   0.323889099845296   0.611423848636157   0.719950614085384   1.0
H12   H   0.731658495961923   0.604749505342397   0.384462853490184   1.0
H13   H   0.732832126327985   0.272817609380802   0.493841728601808   1.0
Br14   Br   0.536317303140514   0.365555050588547   0.048675333303443   1.0
Br15   Br   0.974950497089061   0.984273807327128   0.214913856096928   1.0
Br16   Br   0.941942954358012   0.072577899813190   0.715247450389647   1.0
N17   N   0.644995138937290   0.392657268988288   0.425020196358652   1.0
Sn18   Sn   0.953771865627736   0.496088543500775   0.966839634141486   1.0




# HOIP entry ID:                    0707
# Khazana ID:                       2557
# Organic cation source:            C.C.Stoumpos et al., J. Am. Chem. Soc. 137, 6804 (2015)
# Label:                            Isopropylammonium Tin Bromide
# Material class:                   Hybrid organic-inorganic perovskite ( MC_ino )
# Geometry class:                   Bulk crystalline materials ( GC_cry )
# Organic cation chemical formula:  (CH3)2CHNH3
# Number of atom types:             5
# Total number of atoms:            18
# Atom types:                       C H N  Sn Br
# Number of each atom:              3 10 1  1 3
# Bandgap, HSE06 (eV):              3.8585
# Bandgap, GGA (eV):                2.9437
# Kpoint for VBM:                   -0.3333, 0.1667, 0.5
# Kpoint for CBM:                   -0.0833, 0, 0.4
# Dielectric constant, electronic:  3.5501
# Dielectric constant, ionic:       8.9852
# Dielectric constant, total:       12.5353
# Refractive index:                 1.8842
# Atomization energy (eV/atom):     -4.3993
# Relative energy1 (eV/atom):       -0.0287
# Relative energy2 (eV/atom):       0.1442
# Volume of the unit cell (A^3):    249.61
# Density (g/cm^3):                 2.7764
# Tool:                             VASP
# Pseudopotential:                  PAW
# Note:                             ENCUT=400eV, k-spacing_relax=0.20/Angstrom, k-spacing_bandgap=0.15/Angstrom
# Created by:                       C.Kim, T.D.Huan, S.Krishnan, R. Ramprasad