data_1
_audit_creation_method   'Generated by vasp2cif'
_cell_length_a    6.21460491776
_cell_length_b    6.21022294122
_cell_length_c    6.17675713974
_cell_angle_alpha    80.7693608338
_cell_angle_beta    101.090105368
_cell_angle_gamma    97.1922440906

_symmetry_space_group_name_H-M    'P 1'
loop_
_atom_site_label
_atom_site_type_symbol
_atom_site_fract_x
_atom_site_fract_y
_atom_site_fract_z
_atom_site_occupancy
Br1   Br   0.463521563472435   0.914300398702156   0.010211555529709   1.0
Br2   Br   0.999915280208064   0.943846748162702   0.467352539849445   1.0
Br3   Br   0.942935442824428   0.448672904911181   0.957348543138879   1.0
H4   H   0.514639853727036   0.667778696439342   0.374642296270554   1.0
H5   H   0.713115974819171   0.375935791659179   0.312480721218935   1.0
H6   H   0.670252356624278   0.558807207129733   0.608175442585754   1.0
H7   H   0.186625162455348   0.449850928377099   0.485135289316549   1.0
H8   H   0.359419334270563   0.341965526104821   0.735672926018585   1.0
H9   H   0.318961063111268   0.627715394795608   0.683250223883913   1.0
H10   H   0.420425508438372   0.322586910348870   0.242625623116828   1.0
H11   H   0.564488232836854   0.191899174820653   0.499428902036388   1.0
C12   C   0.332481803912797   0.484167059298179   0.608716021524848   1.0
C13   C   0.559908688222858   0.339905014744515   0.377660144544293   1.0
Sn14   Sn   0.926477412206895   0.980399818124825   0.008548112968483   1.0
N15   N   0.529736222972625   0.528656213188672   0.492244590186981   1.0




# HOIP entry ID:                    0708
# Khazana ID:                       2558
# Organic cation source:            B.Saparov et al., Chem. Rev. 116, 4558 (2016)
# Label:                            Dimethylammonium Tin Bromide
# Material class:                   Hybrid organic-inorganic perovskite ( MC_ino )
# Geometry class:                   Bulk crystalline materials ( GC_cry )
# Organic cation chemical formula:  (CH3)2NH2
# Number of atom types:             5
# Total number of atoms:            15
# Atom types:                       C H N  Sn Br
# Number of each atom:              2 8 1  1 3
# Bandgap, HSE06 (eV):              2.4313
# Bandgap, GGA (eV):                1.7324
# Kpoint for VBM:                   0.5, 0.5, 0.5
# Kpoint for CBM:                   0.4474, 0.5, 0.4474
# Dielectric constant, electronic:  4.1041
# Dielectric constant, ionic:       6.4556
# Dielectric constant, total:       10.5596
# Refractive index:                 2.0258
# Atomization energy (eV/atom):     -4.2578
# Relative energy1 (eV/atom):       0.0075
# Relative energy2 (eV/atom):       0.215
# Volume of the unit cell (A^3):    229.81
# Density (g/cm^3):                 2.9143
# Tool:                             VASP
# Pseudopotential:                  PAW
# Note:                             ENCUT=400eV, k-spacing_relax=0.20/Angstrom, k-spacing_bandgap=0.15/Angstrom
# Created by:                       C.Kim, T.D.Huan, S.Krishnan, R. Ramprasad