data_1
_audit_creation_method   'Generated by vasp2cif'
_cell_length_a    6.21613765609
_cell_length_b    6.2112430726
_cell_length_c    6.15889087524
_cell_angle_alpha    83.6248188727
_cell_angle_beta    101.386355241
_cell_angle_gamma    98.8933494044

_symmetry_space_group_name_H-M    'P 1'
loop_
_atom_site_label
_atom_site_type_symbol
_atom_site_fract_x
_atom_site_fract_y
_atom_site_fract_z
_atom_site_occupancy
Br1   Br   0.468837453774964   0.952841513223931   0.939192989543070   1.0
Br2   Br   0.907732397990578   0.935434197757783   0.495960928744049   1.0
Br3   Br   0.973479368093059   0.456367520239512   0.999528010583158   1.0
H4   H   0.340291234368561   0.585024043928374   0.265708960062084   1.0
H5   H   0.656465034353580   0.406231959966120   0.264190676154250   1.0
H6   H   0.555967627286706   0.684944547123767   0.450555156354844   1.0
H7   H   0.174128133752958   0.358630245008878   0.548502103410794   1.0
H8   H   0.405243929896380   0.458692746674527   0.751847253269579   1.0
H9   H   0.220006442981472   0.641160947678425   0.602954634050449   1.0
H10   H   0.437523304586529   0.217999437919444   0.356251600869373   1.0
H11   H   0.667899997408077   0.327678165555345   0.554438957531163   1.0
C12   C   0.298030550381289   0.498195436363736   0.594472256757124   1.0
C13   C   0.560078870105700   0.360327023499359   0.395817842792318   1.0
Sn14   Sn   0.925084643753291   0.990031998174864   0.026229190114190   1.0
N15   N   0.439624301804567   0.548230024475347   0.416880333359425   1.0




# HOIP entry ID:                    0709
# Khazana ID:                       2559
# Organic cation source:            B.Saparov et al., Chem. Rev. 116, 4558 (2016)
# Label:                            Dimethylammonium Tin Bromide
# Material class:                   Hybrid organic-inorganic perovskite ( MC_ino )
# Geometry class:                   Bulk crystalline materials ( GC_cry )
# Organic cation chemical formula:  (CH3)2NH2
# Number of atom types:             5
# Total number of atoms:            15
# Atom types:                       C H N  Sn Br
# Number of each atom:              2 8 1  1 3
# Bandgap, HSE06 (eV):              2.4818
# Bandgap, GGA (eV):                1.7915
# Kpoint for VBM:                   0.5, 0.5, 0.5
# Kpoint for CBM:                   0.4737, 0.5, 0.4737
# Dielectric constant, electronic:  4.1375
# Dielectric constant, ionic:       8.4487
# Dielectric constant, total:       12.5862
# Refractive index:                 2.0341
# Atomization energy (eV/atom):     -4.2577
# Relative energy1 (eV/atom):       0.0076
# Relative energy2 (eV/atom):       0.215
# Volume of the unit cell (A^3):    229.51
# Density (g/cm^3):                 2.9181
# Tool:                             VASP
# Pseudopotential:                  PAW
# Note:                             ENCUT=400eV, k-spacing_relax=0.20/Angstrom, k-spacing_bandgap=0.15/Angstrom
# Created by:                       C.Kim, T.D.Huan, S.Krishnan, R. Ramprasad