data_1
_audit_creation_method   'Generated by vasp2cif'
_cell_length_a    6.2216368347
_cell_length_b    6.22137180211
_cell_length_c    6.16477762776
_cell_angle_alpha    80.1794540579
_cell_angle_beta    100.640420374
_cell_angle_gamma    97.0461176524

_symmetry_space_group_name_H-M    'P 1'
loop_
_atom_site_label
_atom_site_type_symbol
_atom_site_fract_x
_atom_site_fract_y
_atom_site_fract_z
_atom_site_occupancy
Br1   Br   0.454124731111186   0.922534825042902   0.009485823128010   1.0
Br2   Br   0.985630759493652   0.954465676150306   0.470018382633406   1.0
Br3   Br   0.934095159871511   0.450661997249007   0.950395566720573   1.0
H4   H   0.524475448849621   0.669029730661215   0.371767719593947   1.0
H5   H   0.679068916982615   0.357194633506119   0.290278122699739   1.0
H6   H   0.669731697761343   0.537160049373753   0.600133113770383   1.0
H7   H   0.182519321864099   0.486179651676061   0.483261245694280   1.0
H8   H   0.344217857964118   0.352039645180710   0.728338194826435   1.0
H9   H   0.338234263330086   0.643641048116450   0.686698100310274   1.0
H10   H   0.385477241523553   0.338855179131471   0.228455722973493   1.0
H11   H   0.519355385052464   0.184366154316748   0.477833088788266   1.0
C12   C   0.332047455125547   0.500362477113534   0.605759135874550   1.0
C13   C   0.528454514466326   0.336220230731826   0.360505329643104   1.0
Sn14   Sn   0.917070481857579   0.983674833170149   0.009572473088760   1.0
N15   N   0.526296924556121   0.525114382618874   0.484869842711120   1.0




# HOIP entry ID:                    0710
# Khazana ID:                       2560
# Organic cation source:            B.Saparov et al., Chem. Rev. 116, 4558 (2016)
# Label:                            Dimethylammonium Tin Bromide
# Material class:                   Hybrid organic-inorganic perovskite ( MC_ino )
# Geometry class:                   Bulk crystalline materials ( GC_cry )
# Organic cation chemical formula:  (CH3)2NH2
# Number of atom types:             5
# Total number of atoms:            15
# Atom types:                       C H N  Sn Br
# Number of each atom:              2 8 1  1 3
# Bandgap, HSE06 (eV):              2.4428
# Bandgap, GGA (eV):                1.7376
# Kpoint for VBM:                   0.5, 0.5, 0.5
# Kpoint for CBM:                   0.5, 0.5, 0.4211
# Dielectric constant, electronic:  4.1035
# Dielectric constant, ionic:       6.134
# Dielectric constant, total:       10.2375
# Refractive index:                 2.0257
# Atomization energy (eV/atom):     -4.2582
# Relative energy1 (eV/atom):       0.0071
# Relative energy2 (eV/atom):       0.2146
# Volume of the unit cell (A^3):    230.05
# Density (g/cm^3):                 2.9113
# Tool:                             VASP
# Pseudopotential:                  PAW
# Note:                             ENCUT=400eV, k-spacing_relax=0.20/Angstrom, k-spacing_bandgap=0.15/Angstrom
# Created by:                       C.Kim, T.D.Huan, S.Krishnan, R. Ramprasad