data_1
_audit_creation_method   'Generated by vasp2cif'
_cell_length_a    6.22891322086
_cell_length_b    6.13661653581
_cell_length_c    6.1733333262
_cell_angle_alpha    87.4652596526
_cell_angle_beta    84.3772712292
_cell_angle_gamma    77.1061946101

_symmetry_space_group_name_H-M    'P 1'
loop_
_atom_site_label
_atom_site_type_symbol
_atom_site_fract_x
_atom_site_fract_y
_atom_site_fract_z
_atom_site_occupancy
Br1   Br   0.061187352421165   0.969283940382461   0.508549820594396   1.0
Br2   Br   0.568204178536057   0.025699258901746   0.010125008668396   1.0
Br3   Br   0.980447240936655   0.437987421821298   0.010749264561078   1.0
H4   H   0.403125909969084   0.685657760609800   0.346418264273318   1.0
H5   H   0.279514357200490   0.341108655216871   0.351624566896241   1.0
H6   H   0.608391027767603   0.484133636784996   0.241477472641712   1.0
H7   H   0.561199349759946   0.656658023914808   0.689728600311987   1.0
H8   H   0.781148488758141   0.438993568289632   0.579061051426969   1.0
H9   H   0.747651206161038   0.717881500024752   0.468735136802863   1.0
H10   H   0.285007961607306   0.435176260996023   0.621172114191388   1.0
H11   H   0.502031098154383   0.214831924119451   0.510894391698749   1.0
C12   C   0.662819280261040   0.592454583340526   0.542696462513966   1.0
C13   C   0.384275888182536   0.368671124967385   0.473742368224379   1.0
Sn14   Sn   0.026086058407472   0.965648856633742   0.975761525977603   1.0
N15   N   0.513180601877110   0.539333483996451   0.383803951217004   1.0




# HOIP entry ID:                    0711
# Khazana ID:                       2561
# Organic cation source:            B.Saparov et al., Chem. Rev. 116, 4558 (2016)
# Label:                            Dimethylammonium Tin Bromide
# Material class:                   Hybrid organic-inorganic perovskite ( MC_ino )
# Geometry class:                   Bulk crystalline materials ( GC_cry )
# Organic cation chemical formula:  (CH3)2NH2
# Number of atom types:             5
# Total number of atoms:            15
# Atom types:                       C H N  Sn Br
# Number of each atom:              2 8 1  1 3
# Bandgap, HSE06 (eV):              2.4926
# Bandgap, GGA (eV):                1.7941
# Kpoint for VBM:                   0.5, 0.5, 0.5
# Kpoint for CBM:                   0.5, 0.5, 0.5
# Dielectric constant, electronic:  4.187
# Dielectric constant, ionic:       9.1612
# Dielectric constant, total:       13.3482
# Refractive index:                 2.0462
# Atomization energy (eV/atom):     -4.2572
# Relative energy1 (eV/atom):       0.0081
# Relative energy2 (eV/atom):       0.2156
# Volume of the unit cell (A^3):    228.85
# Density (g/cm^3):                 2.9265
# Tool:                             VASP
# Pseudopotential:                  PAW
# Note:                             ENCUT=400eV, k-spacing_relax=0.20/Angstrom, k-spacing_bandgap=0.15/Angstrom
# Created by:                       C.Kim, T.D.Huan, S.Krishnan, R. Ramprasad