data_1
_audit_creation_method   'Generated by vasp2cif'
_cell_length_a    6.21887939685
_cell_length_b    4.40805334404
_cell_length_c    8.43705680325
_cell_angle_alpha    91.8678429015
_cell_angle_beta    83.0384185859
_cell_angle_gamma    98.6574853398

_symmetry_space_group_name_H-M    'P 1'
loop_
_atom_site_label
_atom_site_type_symbol
_atom_site_fract_x
_atom_site_fract_y
_atom_site_fract_z
_atom_site_occupancy
Br1   Br   0.048620627830566   0.106431970954802   0.194441197619000   1.0
Br2   Br   0.526780056910781   0.738241134357253   0.923852217365400   1.0
Br3   Br   0.107929367335949   0.075253016197856   0.673619510934138   1.0
H4   H   0.707010521801678   0.274037055001898   0.430716690953155   1.0
H5   H   0.370787717133872   0.454691691147339   0.563039170579913   1.0
H6   H   0.512401745751582   0.790995780713502   0.595998906910111   1.0
H7   H   0.448280996475766   0.489158403575743   0.279314968028906   1.0
H8   H   0.332786971165255   0.816001742128968   0.359927091977987   1.0
H9   H   0.622534504729991   0.844358681497340   0.300214386411120   1.0
H10   H   0.702623049198706   0.362041453744034   0.640935553533204   1.0
H11   H   0.853097288690300   0.624489204417984   0.496263597457407   1.0
C12   C   0.475543754697469   0.697779539948179   0.351477221548045   1.0
C13   C   0.708027134804318   0.453954191886744   0.522098500368486   1.0
Sn14   Sn   0.069686798500655   0.606802961321947   0.948250512034399   1.0
N15   N   0.507489464973041   0.606773173106454   0.517220474278744   1.0




# HOIP entry ID:                    0712
# Khazana ID:                       2562
# Organic cation source:            B.Saparov et al., Chem. Rev. 116, 4558 (2016)
# Label:                            Dimethylammonium Tin Bromide
# Material class:                   Hybrid organic-inorganic perovskite ( MC_ino )
# Geometry class:                   Bulk crystalline materials ( GC_cry )
# Organic cation chemical formula:  (CH3)2NH2
# Number of atom types:             5
# Total number of atoms:            15
# Atom types:                       C H N  Sn Br
# Number of each atom:              2 8 1  1 3
# Bandgap, HSE06 (eV):              3.4802
# Bandgap, GGA (eV):                2.6324
# Kpoint for VBM:                   0.5, 0.1667, 0.5
# Kpoint for CBM:                   0.4167, 0, 0.4
# Dielectric constant, electronic:  3.7812
# Dielectric constant, ionic:       10.9409
# Dielectric constant, total:       14.7222
# Refractive index:                 1.9445
# Atomization energy (eV/atom):     -4.2505
# Relative energy1 (eV/atom):       0.0149
# Relative energy2 (eV/atom):       0.2223
# Volume of the unit cell (A^3):    226.94
# Density (g/cm^3):                 2.9512
# Tool:                             VASP
# Pseudopotential:                  PAW
# Note:                             ENCUT=400eV, k-spacing_relax=0.20/Angstrom, k-spacing_bandgap=0.15/Angstrom
# Created by:                       C.Kim, T.D.Huan, S.Krishnan, R. Ramprasad