data_1
_audit_creation_method   'Generated by vasp2cif'
_cell_length_a    8.36582068621
_cell_length_b    4.40284206751
_cell_length_c    7.1537930492
_cell_angle_alpha    120.775007037
_cell_angle_beta    91.9715617811
_cell_angle_gamma    94.5621796086

_symmetry_space_group_name_H-M    'P 1'
loop_
_atom_site_label
_atom_site_type_symbol
_atom_site_fract_x
_atom_site_fract_y
_atom_site_fract_z
_atom_site_occupancy
Br1   Br   0.195483768126990   0.100758880762881   0.941565472565938   1.0
Br2   Br   0.927444788415301   0.245904379349974   0.460584430865931   1.0
Br3   Br   0.665851673184126   0.958646652295116   0.885831804994816   1.0
H4   H   0.449705943187476   0.523718974931067   0.288624533570578   1.0
H5   H   0.536602708345143   0.078149498929111   0.638569990653589   1.0
H6   H   0.590896050065435   0.278280152790020   0.506913907715640   1.0
H7   H   0.259131415780761   0.963505526126218   0.498864560322962   1.0
H8   H   0.327630538702002   0.425919022692902   0.625945568075190   1.0
H9   H   0.309450511514333   0.145679267079003   0.333169637777440   1.0
H10   H   0.662016991427678   0.673544534079775   0.334181126305261   1.0
H11   H   0.533191304929543   0.742409770135712   0.157676331210706   1.0
C12   C   0.338275134728690   0.161079479263319   0.487618463951142   1.0
C13   C   0.541709105464967   0.725994259600523   0.304405095867671   1.0
Sn14   Sn   0.945529677171803   0.569510060561130   0.917168543013736   1.0
N15   N   0.509640388955669   0.079419541403219   0.495920533109324   1.0




# HOIP entry ID:                    0713
# Khazana ID:                       2563
# Organic cation source:            B.Saparov et al., Chem. Rev. 116, 4558 (2016)
# Label:                            Dimethylammonium Tin Bromide
# Material class:                   Hybrid organic-inorganic perovskite ( MC_ino )
# Geometry class:                   Bulk crystalline materials ( GC_cry )
# Organic cation chemical formula:  (CH3)2NH2
# Number of atom types:             5
# Total number of atoms:            15
# Atom types:                       C H N  Sn Br
# Number of each atom:              2 8 1  1 3
# Bandgap, HSE06 (eV):              3.4899
# Bandgap, GGA (eV):                2.6334
# Kpoint for VBM:                   -0.4, 0.15, 0.3125
# Kpoint for CBM:                   0.5, 0, 0.5
# Dielectric constant, electronic:  3.8399
# Dielectric constant, ionic:       9.5776
# Dielectric constant, total:       13.4175
# Refractive index:                 1.9596
# Atomization energy (eV/atom):     -4.2503
# Relative energy1 (eV/atom):       0.015
# Relative energy2 (eV/atom):       0.2225
# Volume of the unit cell (A^3):    224.81
# Density (g/cm^3):                 2.9791
# Tool:                             VASP
# Pseudopotential:                  PAW
# Note:                             ENCUT=400eV, k-spacing_relax=0.20/Angstrom, k-spacing_bandgap=0.15/Angstrom
# Created by:                       C.Kim, T.D.Huan, S.Krishnan, R. Ramprasad