data_1
_audit_creation_method   'Generated by vasp2cif'
_cell_length_a    6.23003072824
_cell_length_b    4.47273454421
_cell_length_c    8.14316646464
_cell_angle_alpha    80.6380424837
_cell_angle_beta    85.8942962431
_cell_angle_gamma    82.8236250076

_symmetry_space_group_name_H-M    'P 1'
loop_
_atom_site_label
_atom_site_type_symbol
_atom_site_fract_x
_atom_site_fract_y
_atom_site_fract_z
_atom_site_occupancy
Br1   Br   0.953604325634736   0.175256169267278   0.793591554433796   1.0
Br2   Br   0.472697208774562   0.791939372302465   0.059610156798207   1.0
Br3   Br   0.903418900369886   0.001790298018420   0.339301397672678   1.0
H4   H   0.311145646155083   0.142413290350049   0.537622639375392   1.0
H5   H   0.660124576842030   0.359104993808252   0.491493181064946   1.0
H6   H   0.534965606790230   0.684816657715508   0.404482108022179   1.0
H7   H   0.472795040500991   0.381217322419502   0.756405378306397   1.0
H8   H   0.584605711559483   0.730560444456167   0.686100366596015   1.0
H9   H   0.300942253343564   0.708355787789920   0.667798518893036   1.0
H10   H   0.394447956401351   0.252664351179810   0.321725701686212   1.0
H11   H   0.192922376819027   0.489072400166002   0.425017327016157   1.0
C12   C   0.463747143623799   0.587354193895330   0.664180080715347   1.0
C13   C   0.339868704278608   0.330142040094017   0.439328838505709   1.0
Sn14   Sn   0.925786646564262   0.653062798345744   0.051235156733867   1.0
N15   N   0.513151597896957   0.496301733625039   0.493218738299120   1.0




# HOIP entry ID:                    0714
# Khazana ID:                       2564
# Organic cation source:            B.Saparov et al., Chem. Rev. 116, 4558 (2016)
# Label:                            Dimethylammonium Tin Bromide
# Material class:                   Hybrid organic-inorganic perovskite ( MC_ino )
# Geometry class:                   Bulk crystalline materials ( GC_cry )
# Organic cation chemical formula:  (CH3)2NH2
# Number of atom types:             5
# Total number of atoms:            15
# Atom types:                       C H N  Sn Br
# Number of each atom:              2 8 1  1 3
# Bandgap, HSE06 (eV):              3.5818
# Bandgap, GGA (eV):                2.7156
# Kpoint for VBM:                   0.5, 0.2778, 0.3
# Kpoint for CBM:                   0.4167, 0, 0.4
# Dielectric constant, electronic:  3.8556
# Dielectric constant, ionic:       8.2661
# Dielectric constant, total:       12.1217
# Refractive index:                 1.9636
# Atomization energy (eV/atom):     -4.25
# Relative energy1 (eV/atom):       0.0153
# Relative energy2 (eV/atom):       0.2228
# Volume of the unit cell (A^3):    221.83
# Density (g/cm^3):                 3.0191
# Tool:                             VASP
# Pseudopotential:                  PAW
# Note:                             ENCUT=400eV, k-spacing_relax=0.20/Angstrom, k-spacing_bandgap=0.15/Angstrom
# Created by:                       C.Kim, T.D.Huan, S.Krishnan, R. Ramprasad