data_1
_audit_creation_method   'Generated by vasp2cif'
_cell_length_a    6.24985453598
_cell_length_b    6.23934161566
_cell_length_c    6.24021151065
_cell_angle_alpha    89.0577445264
_cell_angle_beta    100.809928169
_cell_angle_gamma    80.1203163756

_symmetry_space_group_name_H-M    'P 1'
loop_
_atom_site_label
_atom_site_type_symbol
_atom_site_fract_x
_atom_site_fract_y
_atom_site_fract_z
_atom_site_occupancy
C1   C   0.363409162385866   0.409072851360188   0.594316924264583   1.0
C2   C   0.511853650468592   0.521544950590894   0.486862252361613   1.0
H3   H   0.687508932841540   0.507162097889562   0.237056367963161   1.0
H4   H   0.675440087635364   0.782805339895683   0.505867478685454   1.0
H5   H   0.357537997600472   0.246399039835245   0.535111154226321   1.0
H6   H   0.195533075455838   0.504718809213713   0.560039023255412   1.0
H7   H   0.421151245509817   0.396563446262097   0.771384876889246   1.0
H8   H   0.521003720951444   0.760464719161166   0.705696700653645   1.0
H9   H   0.542002114825190   0.297238118204692   0.255732668236333   1.0
Br10   Br   0.993666844990603   0.988453404563555   0.554941875069157   1.0
Br11   Br   0.996405091287457   0.452653340513883   0.015941975102870   1.0
Br12   Br   0.519469049241985   0.962514276095868   0.046475507376537   1.0
N13   N   0.581642055570816   0.440120049380164   0.312542717319617   1.0
N14   N   0.567790071149597   0.704004141854447   0.566410478615611   1.0
Sn15   Sn   0.050526900085491   0.996565415178831   0.011499999980428   1.0




# HOIP entry ID:                    0715
# Khazana ID:                       2565
# Organic cation source:            C.C.Stoumpos et al., J. Am. Chem. Soc. 137, 6804 (2015)
# Label:                            Acetamidinium Tin Bromide
# Material class:                   Hybrid organic-inorganic perovskite ( MC_ino )
# Geometry class:                   Bulk crystalline materials ( GC_cry )
# Organic cation chemical formula:  CH3C(NH2)2
# Number of atom types:             5
# Total number of atoms:            15
# Atom types:                       C H N  Sn Br
# Number of each atom:              2 7 2  1 3
# Bandgap, HSE06 (eV):              2.4756
# Bandgap, GGA (eV):                1.7584
# Kpoint for VBM:                   0.5, 0.5, 0.5
# Kpoint for CBM:                   0.5, 0.5, 0.4211
# Dielectric constant, electronic:  4.1072
# Dielectric constant, ionic:       5.9146
# Dielectric constant, total:       10.0218
# Refractive index:                 2.0266
# Atomization energy (eV/atom):     -4.5648
# Relative energy1 (eV/atom):       0.1266
# Relative energy2 (eV/atom):       0.334
# Volume of the unit cell (A^3):    235.18
# Density (g/cm^3):                 2.9395
# Tool:                             VASP
# Pseudopotential:                  PAW
# Note:                             ENCUT=400eV, k-spacing_relax=0.20/Angstrom, k-spacing_bandgap=0.15/Angstrom
# Created by:                       C.Kim, T.D.Huan, S.Krishnan, R. Ramprasad