data_1
_audit_creation_method   'Generated by vasp2cif'
_cell_length_a    6.240393066
_cell_length_b    6.2672541521
_cell_length_c    6.26675019697
_cell_angle_alpha    91.1113280913
_cell_angle_beta    100.672861232
_cell_angle_gamma    100.962810573

_symmetry_space_group_name_H-M    'P 1'
loop_
_atom_site_label
_atom_site_type_symbol
_atom_site_fract_x
_atom_site_fract_y
_atom_site_fract_z
_atom_site_occupancy
C1   C   0.641075052554345   0.507761725843488   0.523060563228399   1.0
C2   C   0.500376627497973   0.621478320218941   0.637008647407284   1.0
H3   H   0.330559520729967   0.602174124460437   0.891077810268429   1.0
H4   H   0.327249527778702   0.872195301320462   0.618394320570336   1.0
H5   H   0.764836126190603   0.446916532290005   0.640119271092743   1.0
H6   H   0.726140461228472   0.615394987879774   0.417188736313217   1.0
H7   H   0.533848711724979   0.368474713088642   0.423359495140776   1.0
H8   H   0.478838929481218   0.854563688145286   0.415968435905836   1.0
H9   H   0.484449036310144   0.402523018451460   0.872860926580762   1.0
Br10   Br   0.015999374537868   0.087614242984322   0.556868682994236   1.0
Br11   Br   0.018007071340913   0.540585040369748   0.104493907667672   1.0
Br12   Br   0.479533144143336   0.058262784878492   0.073572637507551   1.0
N13   N   0.439677413704385   0.541749192589135   0.815838552603529   1.0
N14   N   0.435741977405919   0.797652218913121   0.556157311129829   1.0
Sn15   Sn   0.950737025371179   0.086704108566606   0.103040701589340   1.0




# HOIP entry ID:                    0716
# Khazana ID:                       2566
# Organic cation source:            C.C.Stoumpos et al., J. Am. Chem. Soc. 137, 6804 (2015)
# Label:                            Acetamidinium Tin Bromide
# Material class:                   Hybrid organic-inorganic perovskite ( MC_ino )
# Geometry class:                   Bulk crystalline materials ( GC_cry )
# Organic cation chemical formula:  CH3C(NH2)2
# Number of atom types:             5
# Total number of atoms:            15
# Atom types:                       C H N  Sn Br
# Number of each atom:              2 7 2  1 3
# Bandgap, HSE06 (eV):              2.6173
# Bandgap, GGA (eV):                1.9083
# Kpoint for VBM:                   0.5, 0.5, 0.5
# Kpoint for CBM:                   0.5, 0.5, 0.3947
# Dielectric constant, electronic:  4.0539
# Dielectric constant, ionic:       5.4974
# Dielectric constant, total:       9.5513
# Refractive index:                 2.0134
# Atomization energy (eV/atom):     -4.5649
# Relative energy1 (eV/atom):       0.1265
# Relative energy2 (eV/atom):       0.334
# Volume of the unit cell (A^3):    236.08
# Density (g/cm^3):                 2.9283
# Tool:                             VASP
# Pseudopotential:                  PAW
# Note:                             ENCUT=400eV, k-spacing_relax=0.20/Angstrom, k-spacing_bandgap=0.15/Angstrom
# Created by:                       C.Kim, T.D.Huan, S.Krishnan, R. Ramprasad