data_1
_audit_creation_method   'Generated by vasp2cif'
_cell_length_a    6.23792565522
_cell_length_b    6.22533082919
_cell_length_c    6.18585058684
_cell_angle_alpha    84.0813538028
_cell_angle_beta    101.148399145
_cell_angle_gamma    90.4017018353

_symmetry_space_group_name_H-M    'P 1'
loop_
_atom_site_label
_atom_site_type_symbol
_atom_site_fract_x
_atom_site_fract_y
_atom_site_fract_z
_atom_site_occupancy
C1   C   0.585315761890520   0.471223290891451   0.428142191127300   1.0
C2   C   0.508511727317959   0.627130819408798   0.566531892931970   1.0
H3   H   0.298726925459846   0.668025017006336   0.780146159659012   1.0
H4   H   0.564485270159324   0.924691422016714   0.679776618337094   1.0
H5   H   0.598752211283418   0.551871039249910   0.265884088615955   1.0
H6   H   0.474802838380803   0.335630853887587   0.406547245318464   1.0
H7   H   0.748040427872397   0.409263854952094   0.510025114459225   1.0
H8   H   0.720658175191687   0.860416821502398   0.491123195560526   1.0
H9   H   0.284612297403555   0.422746452633163   0.668004550769560   1.0
Br10   Br   0.082049754900197   0.084238973591802   0.553631260362501   1.0
Br11   Br   0.041233487886963   0.634171286675553   0.085865912103998   1.0
Br12   Br   0.585480656482787   0.093433055922361   0.025847629713162   1.0
N13   N   0.356894312106263   0.568734657485365   0.683356887108836   1.0
N14   N   0.597207281286167   0.820899817607476   0.572542503948888   1.0
Sn15   Sn   0.041928872378037   0.087772637169039   0.082434749983491   1.0




# HOIP entry ID:                    0717
# Khazana ID:                       2567
# Organic cation source:            C.C.Stoumpos et al., J. Am. Chem. Soc. 137, 6804 (2015)
# Label:                            Acetamidinium Tin Bromide
# Material class:                   Hybrid organic-inorganic perovskite ( MC_ino )
# Geometry class:                   Bulk crystalline materials ( GC_cry )
# Organic cation chemical formula:  CH3C(NH2)2
# Number of atom types:             5
# Total number of atoms:            15
# Atom types:                       C H N  Sn Br
# Number of each atom:              2 7 2  1 3
# Bandgap, HSE06 (eV):              2.3986
# Bandgap, GGA (eV):                1.6883
# Kpoint for VBM:                   0.5, 0.5, 0.5
# Kpoint for CBM:                   0.5, 0.5, 0.5
# Dielectric constant, electronic:  4.1954
# Dielectric constant, ionic:       8.633
# Dielectric constant, total:       12.8284
# Refractive index:                 2.0483
# Atomization energy (eV/atom):     -4.5636
# Relative energy1 (eV/atom):       0.1279
# Relative energy2 (eV/atom):       0.3353
# Volume of the unit cell (A^3):    234.41
# Density (g/cm^3):                 2.9492
# Tool:                             VASP
# Pseudopotential:                  PAW
# Note:                             ENCUT=400eV, k-spacing_relax=0.20/Angstrom, k-spacing_bandgap=0.15/Angstrom
# Created by:                       C.Kim, T.D.Huan, S.Krishnan, R. Ramprasad