data_1
_audit_creation_method   'Generated by vasp2cif'
_cell_length_a    6.35707488275
_cell_length_b    4.31920197335
_cell_length_c    8.44985334717
_cell_angle_alpha    89.7819697591
_cell_angle_beta    95.8718081241
_cell_angle_gamma    102.63049241

_symmetry_space_group_name_H-M    'P 1'
loop_
_atom_site_label
_atom_site_type_symbol
_atom_site_fract_x
_atom_site_fract_y
_atom_site_fract_z
_atom_site_occupancy
C1   C   0.413918135086980   0.874529910004192   0.608658145333315   1.0
C2   C   0.539851073286485   0.823680388622769   0.474335709922492   1.0
H3   H   0.385274040665358   0.082000939433499   0.319676524185255   1.0
H4   H   0.578926691226442   0.916799081351719   0.238976971508421   1.0
H5   H   0.317479327639333   0.646288241634188   0.642356399906568   1.0
H6   H   0.524152941638881   0.974135193614629   0.712940989842345   1.0
H7   H   0.304640545554307   0.031272497462538   0.574420563934254   1.0
H8   H   0.780184591764289   0.609458549510059   0.410530344303730   1.0
H9   H   0.725164851463596   0.563818104095901   0.606054133258276   1.0
Br10   Br   0.579230120075884   0.533042108742841   0.008159075612873   1.0
Br11   Br   0.044154800525384   0.262212583266901   0.290874529058897   1.0
Br12   Br   0.989686783161261   0.233002520653926   0.766566931306521   1.0
N13   N   0.503337822725790   0.955153427242351   0.335540998403062   1.0
N14   N   0.685702243983847   0.644378068442975   0.496258481719679   1.0
Sn15   Sn   0.029546031202166   0.704528385921520   0.018080201704308   1.0




# HOIP entry ID:                    0718
# Khazana ID:                       2568
# Organic cation source:            C.C.Stoumpos et al., J. Am. Chem. Soc. 137, 6804 (2015)
# Label:                            Acetamidinium Tin Bromide
# Material class:                   Hybrid organic-inorganic perovskite ( MC_ino )
# Geometry class:                   Bulk crystalline materials ( GC_cry )
# Organic cation chemical formula:  CH3C(NH2)2
# Number of atom types:             5
# Total number of atoms:            15
# Atom types:                       C H N  Sn Br
# Number of each atom:              2 7 2  1 3
# Bandgap, HSE06 (eV):              3.634
# Bandgap, GGA (eV):                2.7517
# Kpoint for VBM:                   0.5, 0.1667, 0.5
# Kpoint for CBM:                   0.5, 0.0556, 0.5
# Dielectric constant, electronic:  3.8369
# Dielectric constant, ionic:       7.9033
# Dielectric constant, total:       11.7402
# Refractive index:                 1.9588
# Atomization energy (eV/atom):     -4.5642
# Relative energy1 (eV/atom):       0.1272
# Relative energy2 (eV/atom):       0.3347
# Volume of the unit cell (A^3):    225.17
# Density (g/cm^3):                 3.0702
# Tool:                             VASP
# Pseudopotential:                  PAW
# Note:                             ENCUT=400eV, k-spacing_relax=0.20/Angstrom, k-spacing_bandgap=0.15/Angstrom
# Created by:                       C.Kim, T.D.Huan, S.Krishnan, R. Ramprasad