data_1
_audit_creation_method   'Generated by vasp2cif'
_cell_length_a    8.43245039028
_cell_length_b    4.32553330014
_cell_length_c    6.35972846544
_cell_angle_alpha    102.673420899
_cell_angle_beta    84.0462718453
_cell_angle_gamma    90.2103425431

_symmetry_space_group_name_H-M    'P 1'
loop_
_atom_site_label
_atom_site_type_symbol
_atom_site_fract_x
_atom_site_fract_y
_atom_site_fract_z
_atom_site_occupancy
C1   C   0.392598566475925   0.806132695218857   0.385973030872819   1.0
C2   C   0.526869139995959   0.756398638745175   0.512439609899879   1.0
H3   H   0.681638246750374   0.016918353127814   0.359591088051758   1.0
H4   H   0.762116817440912   0.852607683221173   0.553535728049084   1.0
H5   H   0.358346191807463   0.577588256448855   0.290943061325372   1.0
H6   H   0.288199025789631   0.907845479055673   0.495933894743253   1.0
H7   H   0.427419623085790   0.960493549363235   0.275468237754929   1.0
H8   H   0.590384570021087   0.542836396231181   0.752874731448877   1.0
H9   H   0.394926041243160   0.494893665165492   0.696307776594082   1.0
Br10   Br   0.992937255490119   0.465286766713284   0.552549771088337   1.0
Br11   Br   0.709831563936433   0.195156729458923   0.017623625259070   1.0
Br12   Br   0.234521783465276   0.165264763623441   0.962398146732085   1.0
N13   N   0.665680226698264   0.889434188541792   0.477087744599785   1.0
N14   N   0.504838583163185   0.576733934534801   0.657809359600726   1.0
Sn15   Sn   0.982882364636431   0.636948900550237   0.002844193979868   1.0




# HOIP entry ID:                    0719
# Khazana ID:                       2569
# Organic cation source:            C.C.Stoumpos et al., J. Am. Chem. Soc. 137, 6804 (2015)
# Label:                            Acetamidinium Tin Bromide
# Material class:                   Hybrid organic-inorganic perovskite ( MC_ino )
# Geometry class:                   Bulk crystalline materials ( GC_cry )
# Organic cation chemical formula:  CH3C(NH2)2
# Number of atom types:             5
# Total number of atoms:            15
# Atom types:                       C H N  Sn Br
# Number of each atom:              2 7 2  1 3
# Bandgap, HSE06 (eV):              3.6358
# Bandgap, GGA (eV):                2.7518
# Kpoint for VBM:                   0.5, 0.1667, 0.5
# Kpoint for CBM:                   0.5, 0.0556, 0.5
# Dielectric constant, electronic:  3.8379
# Dielectric constant, ionic:       9.2071
# Dielectric constant, total:       13.0449
# Refractive index:                 1.959
# Atomization energy (eV/atom):     -4.5641
# Relative energy1 (eV/atom):       0.1273
# Relative energy2 (eV/atom):       0.3347
# Volume of the unit cell (A^3):    225.05
# Density (g/cm^3):                 3.0719
# Tool:                             VASP
# Pseudopotential:                  PAW
# Note:                             ENCUT=400eV, k-spacing_relax=0.20/Angstrom, k-spacing_bandgap=0.15/Angstrom
# Created by:                       C.Kim, T.D.Huan, S.Krishnan, R. Ramprasad