data_1
_audit_creation_method   'Generated by vasp2cif'
_cell_length_a    6.30857816422
_cell_length_b    4.27485144882
_cell_length_c    9.21794190928
_cell_angle_alpha    108.950778624
_cell_angle_beta    79.4376787393
_cell_angle_gamma    92.30331883

_symmetry_space_group_name_H-M    'P 1'
loop_
_atom_site_label
_atom_site_type_symbol
_atom_site_fract_x
_atom_site_fract_y
_atom_site_fract_z
_atom_site_occupancy
C1   C   0.474534647740469   0.537275302919241   0.646134459857784   1.0
C2   C   0.472159051401206   0.318182190350519   0.483029011902509   1.0
H3   H   0.338799651124603   0.245823953609765   0.287257122776864   1.0
H4   H   0.225629996167477   0.568422352075345   0.451995493097002   1.0
H5   H   0.449032933098167   0.391326730943327   0.725238291089070   1.0
H6   H   0.632808082478121   0.649802110300406   0.652976721815385   1.0
H7   H   0.351493280502822   0.732646789812691   0.683238879425431   1.0
H8   H   0.617653415940524   0.908807940938757   0.311133874225085   1.0
H9   H   0.722832661311614   0.034394313813841   0.483387702412138   1.0
Br10   Br   0.509783214091073   0.765667466440213   0.036449973610978   1.0
Br11   Br   0.963835952050196   0.434209298790741   0.196304666073068   1.0
Br12   Br   0.968247290791389   0.075171335981466   0.683090840675689   1.0
N13   N   0.338708987119503   0.384050028733796   0.400634468957470   1.0
N14   N   0.607565676209937   0.059879301196922   0.423416801504509   1.0
Sn15   Sn   0.956165159972933   0.760480884092978   0.954351692576999   1.0




# HOIP entry ID:                    0720
# Khazana ID:                       2570
# Organic cation source:            C.C.Stoumpos et al., J. Am. Chem. Soc. 137, 6804 (2015)
# Label:                            Acetamidinium Tin Bromide
# Material class:                   Hybrid organic-inorganic perovskite ( MC_ino )
# Geometry class:                   Bulk crystalline materials ( GC_cry )
# Organic cation chemical formula:  CH3C(NH2)2
# Number of atom types:             5
# Total number of atoms:            15
# Atom types:                       C H N  Sn Br
# Number of each atom:              2 7 2  1 3
# Bandgap, HSE06 (eV):              3.6492
# Bandgap, GGA (eV):                2.7932
# Kpoint for VBM:                   0.5, 0.1667, 0.3333
# Kpoint for CBM:                   0.25, 0, 0.4167
# Dielectric constant, electronic:  3.7642
# Dielectric constant, ionic:       8.5581
# Dielectric constant, total:       12.3222
# Refractive index:                 1.9401
# Atomization energy (eV/atom):     -4.5586
# Relative energy1 (eV/atom):       0.1328
# Relative energy2 (eV/atom):       0.3403
# Volume of the unit cell (A^3):    231.08
# Density (g/cm^3):                 2.9917
# Tool:                             VASP
# Pseudopotential:                  PAW
# Note:                             ENCUT=400eV, k-spacing_relax=0.20/Angstrom, k-spacing_bandgap=0.15/Angstrom
# Created by:                       C.Kim, T.D.Huan, S.Krishnan, R. Ramprasad