data_1
_audit_creation_method   'Generated by vasp2cif'
_cell_length_a    6.02468411974
_cell_length_b    5.91633088528
_cell_length_c    6.02521176237
_cell_angle_alpha    90.0016145053
_cell_angle_beta    93.5223271074
_cell_angle_gamma    89.8462824623

_symmetry_space_group_name_H-M    'P 1'
loop_
_atom_site_label
_atom_site_type_symbol
_atom_site_fract_x
_atom_site_fract_y
_atom_site_fract_z
_atom_site_occupancy
Br1   Br   0.394078841805062   0.998330981428474   0.053421143957969   1.0
Br2   Br   0.868554424350677   0.999888403840764   0.517805596085346   1.0
Br3   Br   0.872159025460213   0.499081126459984   0.975253516203196   1.0
H4   H   0.532202412877908   0.500502542374932   0.266748661620113   1.0
H5   H   0.645355458488119   0.360439096378258   0.484566696712086   1.0
H6   H   0.640420269216165   0.643944030025558   0.484232142160252   1.0
H7   H   0.240860827914489   0.343061868337052   0.489668729982441   1.0
H8   H   0.359095807028531   0.498570013984391   0.723138026706501   1.0
H9   H   0.234039109785634   0.646648648117534   0.487675074495875   1.0
C10   C   0.327586117286394   0.496962383202671   0.543137489409958   1.0
Sn11   Sn   0.922558956312812   0.999361140627791   0.006479475125310   1.0
N12   N   0.549978749473887   0.500769765222650   0.438073447540049   1.0




# HOIP entry ID:                    0722
# Khazana ID:                       2572
# Organic cation source:            T.D.Huan et al., Phys. Rev. B 93,094105(2016)
# Label:                            Methylammonium Tin Bromide
# Material class:                   Hybrid organic-inorganic perovskite ( MC_ino )
# Geometry class:                   Bulk crystalline materials ( GC_cry )
# Organic cation chemical formula:  CH3NH3
# Number of atom types:             5
# Total number of atoms:            12
# Atom types:                       C H N  Sn Br
# Number of each atom:              1 6 1  1 3
# Bandgap, HSE06 (eV):              1.7969
# Bandgap, GGA (eV):                1.163
# Kpoint for VBM:                   0.5, 0.5, 0.5
# Kpoint for CBM:                   0.4737, 0.4737, 0.4737
# Dielectric constant, electronic:  4.817
# Dielectric constant, ionic:       16.5762
# Dielectric constant, total:       21.3932
# Refractive index:                 2.1948
# Atomization energy (eV/atom):     -4.0621
# Relative energy1 (eV/atom):       0.1023
# Relative energy2 (eV/atom):       0.3616
# Volume of the unit cell (A^3):    214.36
# Density (g/cm^3):                 3.0157
# Tool:                             VASP
# Pseudopotential:                  PAW
# Note:                             ENCUT=400eV, k-spacing_relax=0.20/Angstrom, k-spacing_bandgap=0.15/Angstrom
# Created by:                       C.Kim, T.D.Huan, S.Krishnan, R. Ramprasad