data_1
_audit_creation_method   'Generated by vasp2cif'
_cell_length_a    5.98258926591
_cell_length_b    5.96450764847
_cell_length_c    6.06185907385
_cell_angle_alpha    86.5300522233
_cell_angle_beta    85.0875604695
_cell_angle_gamma    92.4123314656

_symmetry_space_group_name_H-M    'P 1'
loop_
_atom_site_label
_atom_site_type_symbol
_atom_site_fract_x
_atom_site_fract_y
_atom_site_fract_z
_atom_site_occupancy
Br1   Br   0.027761352070023   0.031829773148488   0.603004611033882   1.0
Br2   Br   0.495136933607952   0.985066882006372   0.120851825337290   1.0
Br3   Br   0.963562195616923   0.507951001837526   0.120061426554258   1.0
H4   H   0.305719315216805   0.352971508352319   0.481431573049534   1.0
H5   H   0.560039058616731   0.406850538851742   0.345398264715939   1.0
H6   H   0.383914395469482   0.612826927860510   0.369691255050981   1.0
H7   H   0.593778765297003   0.375922041517057   0.743811549828855   1.0
H8   H   0.671049653188788   0.654793519971747   0.627552636207767   1.0
H9   H   0.399609010249122   0.595619685137578   0.773843804921135   1.0
C10   C   0.533588318353111   0.529218597686331   0.666977115250965   1.0
Sn11   Sn   0.985276313099938   0.001702918165122   0.076213311863661   1.0
N12   N   0.438554689214158   0.471396605465273   0.452172626185771   1.0




# HOIP entry ID:                    0723
# Khazana ID:                       2573
# Organic cation source:            T.D.Huan et al., Phys. Rev. B 93,094105(2016)
# Label:                            Methylammonium Tin Bromide
# Material class:                   Hybrid organic-inorganic perovskite ( MC_ino )
# Geometry class:                   Bulk crystalline materials ( GC_cry )
# Organic cation chemical formula:  CH3NH3
# Number of atom types:             5
# Total number of atoms:            12
# Atom types:                       C H N  Sn Br
# Number of each atom:              1 6 1  1 3
# Bandgap, HSE06 (eV):              1.8355
# Bandgap, GGA (eV):                1.249
# Kpoint for VBM:                   0.5, 0.5, 0.5
# Kpoint for CBM:                   0.5, 0.5, 0.4474
# Dielectric constant, electronic:  4.8073
# Dielectric constant, ionic:       20.2301
# Dielectric constant, total:       25.0374
# Refractive index:                 2.1925
# Atomization energy (eV/atom):     -4.0619
# Relative energy1 (eV/atom):       0.1025
# Relative energy2 (eV/atom):       0.3618
# Volume of the unit cell (A^3):    214.87
# Density (g/cm^3):                 3.0085
# Tool:                             VASP
# Pseudopotential:                  PAW
# Note:                             ENCUT=400eV, k-spacing_relax=0.20/Angstrom, k-spacing_bandgap=0.15/Angstrom
# Created by:                       C.Kim, T.D.Huan, S.Krishnan, R. Ramprasad