data_1
_audit_creation_method   'Generated by vasp2cif'
_cell_length_a    6.20819107588
_cell_length_b    4.39299774947
_cell_length_c    7.87729750636
_cell_angle_alpha    101.234248073
_cell_angle_beta    79.5062724359
_cell_angle_gamma    93.8243125559

_symmetry_space_group_name_H-M    'P 1'
loop_
_atom_site_label
_atom_site_type_symbol
_atom_site_fract_x
_atom_site_fract_y
_atom_site_fract_z
_atom_site_occupancy
Br1   Br   0.991397381125346   0.605339760182694   0.724027709886826   1.0
Br2   Br   0.521584553193961   0.218899965232630   0.084045831840385   1.0
Br3   Br   0.976116466735391   0.794731290491214   0.280184160343843   1.0
H4   H   0.304978999682753   0.744908947094437   0.498756113174103   1.0
H5   H   0.569343085822410   0.709340815119290   0.393960953518942   1.0
H6   H   0.411421443457648   0.953796303671858   0.344535643604623   1.0
H7   H   0.554180539803212   0.002944612387566   0.693375207609137   1.0
H8   H   0.664559539764475   0.229629927198061   0.531665890968029   1.0
H9   H   0.383826747813131   0.271775107531916   0.640840758308926   1.0
C10   C   0.517473885934209   0.112188549031700   0.589509344473115   1.0
Sn11   Sn   0.987503185595131   0.200731073974119   0.007057345774598   1.0
N12   N   0.444964171072385   0.862213648084555   0.448361040497524   1.0




# HOIP entry ID:                    0724
# Khazana ID:                       2574
# Organic cation source:            T.D.Huan et al., Phys. Rev. B 93,094105(2016)
# Label:                            Methylammonium Tin Bromide
# Material class:                   Hybrid organic-inorganic perovskite ( MC_ino )
# Geometry class:                   Bulk crystalline materials ( GC_cry )
# Organic cation chemical formula:  CH3NH3
# Number of atom types:             5
# Total number of atoms:            12
# Atom types:                       C H N  Sn Br
# Number of each atom:              1 6 1  1 3
# Bandgap, HSE06 (eV):              3.2904
# Bandgap, GGA (eV):                2.4726
# Kpoint for VBM:                   0.5, 0.0556, 0.5
# Kpoint for CBM:                   0.5, 0.5, 0.1
# Dielectric constant, electronic:  4.0067
# Dielectric constant, ionic:       13.5394
# Dielectric constant, total:       17.5461
# Refractive index:                 2.0017
# Atomization energy (eV/atom):     -4.0565
# Relative energy1 (eV/atom):       0.1078
# Relative energy2 (eV/atom):       0.3672
# Volume of the unit cell (A^3):    207.08
# Density (g/cm^3):                 3.1217
# Tool:                             VASP
# Pseudopotential:                  PAW
# Note:                             ENCUT=400eV, k-spacing_relax=0.20/Angstrom, k-spacing_bandgap=0.15/Angstrom
# Created by:                       C.Kim, T.D.Huan, S.Krishnan, R. Ramprasad