data_1
_audit_creation_method   'Generated by vasp2cif'
_cell_length_a    6.42636055789
_cell_length_b    4.43298723901
_cell_length_c    8.04176088124
_cell_angle_alpha    106.432014474
_cell_angle_beta    85.2879842808
_cell_angle_gamma    73.3465125129

_symmetry_space_group_name_H-M    'P 1'
loop_
_atom_site_label
_atom_site_type_symbol
_atom_site_fract_x
_atom_site_fract_y
_atom_site_fract_z
_atom_site_occupancy
Br1   Br   0.948490363634313   0.778779010883532   0.264619669461460   1.0
Br2   Br   0.453088222730422   0.902750016577372   0.968297446894134   1.0
Br3   Br   0.077824096855686   0.430472974524790   0.698993540476643   1.0
H4   H   0.714412753683057   0.296548593905499   0.478428748179795   1.0
H5   H   0.544144343238258   0.623624258554770   0.646678501323876   1.0
H6   H   0.724096046620183   0.671349814986158   0.500962933311669   1.0
H7   H   0.354131444811109   0.420437572022024   0.397398720492916   1.0
H8   H   0.340033026358221   0.843737057508250   0.443008463778085   1.0
H9   H   0.535691162466122   0.529437538684057   0.261594012474696   1.0
C10   C   0.448478274673683   0.587128631357551   0.394221630716942   1.0
Sn11   Sn   0.001969868104851   0.096762464375637   0.972130517843226   1.0
N12   N   0.616020396824048   0.543102066620406   0.514665815046598   1.0




# HOIP entry ID:                    0725
# Khazana ID:                       2575
# Organic cation source:            T.D.Huan et al., Phys. Rev. B 93,094105(2016)
# Label:                            Methylammonium Tin Bromide
# Material class:                   Hybrid organic-inorganic perovskite ( MC_ino )
# Geometry class:                   Bulk crystalline materials ( GC_cry )
# Organic cation chemical formula:  CH3NH3
# Number of atom types:             5
# Total number of atoms:            12
# Atom types:                       C H N  Sn Br
# Number of each atom:              1 6 1  1 3
# Bandgap, HSE06 (eV):              3.6347
# Bandgap, GGA (eV):                2.7421
# Kpoint for VBM:                   -0.4167, -0.25, 0.0833
# Kpoint for CBM:                   0.5, 0, 0.5
# Dielectric constant, electronic:  3.8526
# Dielectric constant, ionic:       12.1376
# Dielectric constant, total:       15.9903
# Refractive index:                 1.9628
# Atomization energy (eV/atom):     -4.054
# Relative energy1 (eV/atom):       0.1104
# Relative energy2 (eV/atom):       0.3697
# Volume of the unit cell (A^3):    207.17
# Density (g/cm^3):                 3.1203
# Tool:                             VASP
# Pseudopotential:                  PAW
# Note:                             ENCUT=400eV, k-spacing_relax=0.20/Angstrom, k-spacing_bandgap=0.15/Angstrom
# Created by:                       C.Kim, T.D.Huan, S.Krishnan, R. Ramprasad