data_1
_audit_creation_method   'Generated by vasp2cif'
_cell_length_a    8.09294126169
_cell_length_b    4.30225308053
_cell_length_c    5.96083145958
_cell_angle_alpha    85.3534382703
_cell_angle_beta    94.3567304552
_cell_angle_gamma    90.2568211959

_symmetry_space_group_name_H-M    'P 1'
loop_
_atom_site_label
_atom_site_type_symbol
_atom_site_fract_x
_atom_site_fract_y
_atom_site_fract_z
_atom_site_occupancy
Br1   Br   0.206592165688987   0.722119000164030   0.071823045135511   1.0
Br2   Br   0.905707891761734   0.125915538054876   0.509003412473411   1.0
Br3   Br   0.660373771896544   0.722502408055435   0.999245892173400   1.0
H4   H   0.417528171817433   0.014046470360863   0.297924713385870   1.0
H5   H   0.597957446110870   0.088879250243950   0.447495774382052   1.0
H6   H   0.500376973840336   0.367740167932371   0.281190441119525   1.0
H7   H   0.362998467994110   0.043947150305030   0.692323041561346   1.0
H8   H   0.457158224924679   0.420095422758676   0.683788314505253   1.0
H9   H   0.266117827081104   0.360112583456193   0.518091607542613   1.0
C10   C   0.383683446366752   0.257179598812890   0.586917653149344   1.0
Sn11   Sn   0.933410159308496   0.224597133837020   0.030726749325500   1.0
N12   N   0.480935453208979   0.175225276018637   0.392039355246348   1.0




# HOIP entry ID:                    0726
# Khazana ID:                       2576
# Organic cation source:            T.D.Huan et al., Phys. Rev. B 93,094105(2016)
# Label:                            Methylammonium Tin Bromide
# Material class:                   Hybrid organic-inorganic perovskite ( MC_ino )
# Geometry class:                   Bulk crystalline materials ( GC_cry )
# Organic cation chemical formula:  CH3NH3
# Number of atom types:             5
# Total number of atoms:            12
# Atom types:                       C H N  Sn Br
# Number of each atom:              1 6 1  1 3
# Bandgap, HSE06 (eV):              3.0676
# Bandgap, GGA (eV):                2.2859
# Kpoint for VBM:                   0.5, 0.1667, 0.5
# Kpoint for CBM:                   0.4, 0, 0.4286
# Dielectric constant, electronic:  4.2119
# Dielectric constant, ionic:       15.1939
# Dielectric constant, total:       19.4059
# Refractive index:                 2.0523
# Atomization energy (eV/atom):     -4.0555
# Relative energy1 (eV/atom):       0.1088
# Relative energy2 (eV/atom):       0.3682
# Volume of the unit cell (A^3):    206.26
# Density (g/cm^3):                 3.1341
# Tool:                             VASP
# Pseudopotential:                  PAW
# Note:                             ENCUT=400eV, k-spacing_relax=0.20/Angstrom, k-spacing_bandgap=0.15/Angstrom
# Created by:                       C.Kim, T.D.Huan, S.Krishnan, R. Ramprasad