data_1
_audit_creation_method   'Generated by vasp2cif'
_cell_length_a    7.64352516465
_cell_length_b    4.60496238088
_cell_length_c    7.56983954502
_cell_angle_alpha    52.4179815126
_cell_angle_beta    100.045780243
_cell_angle_gamma    105.019384659

_symmetry_space_group_name_H-M    'P 1'
loop_
_atom_site_label
_atom_site_type_symbol
_atom_site_fract_x
_atom_site_fract_y
_atom_site_fract_z
_atom_site_occupancy
Br1   Br   0.279753699982825   0.022544247379012   0.045858712848594   1.0
Br2   Br   0.927897658539002   0.848963035077774   0.566032280888121   1.0
Br3   Br   0.719048236716587   0.770877546081953   0.057728441898433   1.0
H4   H   0.620673055636950   0.487516591827360   0.553209301398931   1.0
H5   H   0.424819835308435   0.596361159484291   0.409233767927137   1.0
H6   H   0.427298543553749   0.312224970836155   0.692415815668598   1.0
H7   H   0.503643445563366   0.138866727511526   0.397849776649525   1.0
H8   H   0.513288234600822   0.838733262553118   0.698279782870868   1.0
H9   H   0.300932569024157   0.950028247724803   0.553305667145357   1.0
C10   C   0.447083566195854   0.048804663292692   0.549967081201982   1.0
Sn11   Sn   0.983170097189160   0.384551105048080   0.051450225961942   1.0
N12   N   0.482691057689154   0.385228443183293   0.551319145540538   1.0




# HOIP entry ID:                    0727
# Khazana ID:                       2577
# Organic cation source:            T.D.Huan et al., Phys. Rev. B 93,094105(2016)
# Label:                            Methylammonium Tin Bromide
# Material class:                   Hybrid organic-inorganic perovskite ( MC_ino )
# Geometry class:                   Bulk crystalline materials ( GC_cry )
# Organic cation chemical formula:  CH3NH3
# Number of atom types:             5
# Total number of atoms:            12
# Atom types:                       C H N  Sn Br
# Number of each atom:              1 6 1  1 3
# Bandgap, HSE06 (eV):              2.8531
# Bandgap, GGA (eV):                2.0889
# Kpoint for VBM:                   0.2, -0.35, 0.1875
# Kpoint for CBM:                   0.5, 0, 0.375
# Dielectric constant, electronic:  4.3781
# Dielectric constant, ionic:       36.6106
# Dielectric constant, total:       40.9886
# Refractive index:                 2.0924
# Atomization energy (eV/atom):     -4.056
# Relative energy1 (eV/atom):       0.1084
# Relative energy2 (eV/atom):       0.3677
# Volume of the unit cell (A^3):    203.89
# Density (g/cm^3):                 3.1705
# Tool:                             VASP
# Pseudopotential:                  PAW
# Note:                             ENCUT=400eV, k-spacing_relax=0.20/Angstrom, k-spacing_bandgap=0.15/Angstrom
# Created by:                       C.Kim, T.D.Huan, S.Krishnan, R. Ramprasad