data_1
_audit_creation_method   'Generated by vasp2cif'
_cell_length_a    6.09104210202
_cell_length_b    6.13489478569
_cell_length_c    6.12870565748
_cell_angle_alpha    97.9575715051
_cell_angle_beta    95.9296085144
_cell_angle_gamma    95.6315207777

_symmetry_space_group_name_H-M    'P 1'
loop_
_atom_site_label
_atom_site_type_symbol
_atom_site_fract_x
_atom_site_fract_y
_atom_site_fract_z
_atom_site_occupancy
C1   C   0.300617383721693   0.288914216115003   0.334465263460864   1.0
H2   H   0.085819014430925   0.261511620032358   0.570024487350537   1.0
H3   H   0.080621534984040   0.522294980521345   0.318754753963880   1.0
H4   H   0.547212405502002   0.083969443495476   0.309506598762709   1.0
H5   H   0.544183763151764   0.275302284528003   0.125678397839046   1.0
H6   H   0.275733008796919   0.529759370623907   0.132999804123067   1.0
H7   H   0.285221373868069   0.079303626729491   0.569049767862474   1.0
Br8   Br   0.760687172629147   0.759888637547569   0.361197705255123   1.0
Br9   Br   0.765435328988879   0.314878776449966   0.802815206568418   1.0
Br10   Br   0.296215880155714   0.768816132051796   0.818468175482323   1.0
N11   N   0.212279539940042   0.197444491217127   0.496720615675535   1.0
N12   N   0.207773982931720   0.453635605579947   0.251165516535877   1.0
N13   N   0.478156380708860   0.212448538257938   0.252438538199726   1.0
Sn14   Sn   0.808143230190247   0.784022276850052   0.830775168920418   1.0




# HOIP entry ID:                    0728
# Khazana ID:                       2578
# Organic cation source:            B.Saparov et al., Chem. Rev. 116, 4558 (2016)
# Label:                            Guanidinium Tin Bromide
# Material class:                   Hybrid organic-inorganic perovskite ( MC_ino )
# Geometry class:                   Bulk crystalline materials ( GC_cry )
# Organic cation chemical formula:  C(NH2)3
# Number of atom types:             5
# Total number of atoms:            14
# Atom types:                       C H N  Sn Br
# Number of each atom:              1 6 3  1 3
# Bandgap, HSE06 (eV):              2.4061
# Bandgap, GGA (eV):                1.7459
# Kpoint for VBM:                   0.5, 0.5, 0.5
# Kpoint for CBM:                   0.5, 0.5, 0.4211
# Dielectric constant, electronic:  4.5649
# Dielectric constant, ionic:       7.8287
# Dielectric constant, total:       12.3936
# Refractive index:                 2.1366
# Atomization energy (eV/atom):     -4.5961
# Relative energy1 (eV/atom):       0.3193
# Relative energy2 (eV/atom):       0.5416
# Volume of the unit cell (A^3):    224.12
# Density (g/cm^3):                 3.0919
# Tool:                             VASP
# Pseudopotential:                  PAW
# Note:                             ENCUT=400eV, k-spacing_relax=0.20/Angstrom, k-spacing_bandgap=0.15/Angstrom
# Created by:                       C.Kim, T.D.Huan, S.Krishnan, R. Ramprasad