data_1
_audit_creation_method   'Generated by vasp2cif'
_cell_length_a    6.04432492925
_cell_length_b    6.08459607476
_cell_length_c    6.14413827224
_cell_angle_alpha    88.0599679292
_cell_angle_beta    94.5948702924
_cell_angle_gamma    83.5826568118

_symmetry_space_group_name_H-M    'P 1'
loop_
_atom_site_label
_atom_site_type_symbol
_atom_site_fract_x
_atom_site_fract_y
_atom_site_fract_z
_atom_site_occupancy
C1   C   0.756224847313277   0.287673397598461   0.635643289821481   1.0
H2   H   0.860448567384566   0.171746880213938   0.347657665509907   1.0
H3   H   0.003648698949206   0.462187128952685   0.533823344114182   1.0
H4   H   0.501938795497203   0.155908794923846   0.776169001301056   1.0
H5   H   0.614180797883755   0.364974471001446   0.919156685253682   1.0
H6   H   0.883284696092502   0.556744255807516   0.766259385686475   1.0
H7   H   0.667935357421705   0.022198241891161   0.465379691299525   1.0
Br8   Br   0.304059381293179   0.801263952042284   0.611059678767987   1.0
Br9   Br   0.209369970737896   0.266297817366571   0.153583881821305   1.0
Br10   Br   0.731412177469288   0.730327900110069   0.121395071912446   1.0
N11   N   0.755227516649384   0.154808014389630   0.466148801640529   1.0
N12   N   0.891787643760814   0.447233094164233   0.645825140474173   1.0
N13   N   0.621978706673950   0.259086262287077   0.795537956543377   1.0
Sn14   Sn   0.255702842873347   0.794389789251184   0.144640405853892   1.0




# HOIP entry ID:                    0729
# Khazana ID:                       2579
# Organic cation source:            B.Saparov et al., Chem. Rev. 116, 4558 (2016)
# Label:                            Guanidinium Tin Bromide
# Material class:                   Hybrid organic-inorganic perovskite ( MC_ino )
# Geometry class:                   Bulk crystalline materials ( GC_cry )
# Organic cation chemical formula:  C(NH2)3
# Number of atom types:             5
# Total number of atoms:            14
# Atom types:                       C H N  Sn Br
# Number of each atom:              1 6 3  1 3
# Bandgap, HSE06 (eV):              2.1209
# Bandgap, GGA (eV):                1.4178
# Kpoint for VBM:                   0.5, 0.5, 0.5
# Kpoint for CBM:                   0.5, 0.5, 0.5
# Dielectric constant, electronic:  4.5918
# Dielectric constant, ionic:       21.6955
# Dielectric constant, total:       26.2873
# Refractive index:                 2.1429
# Atomization energy (eV/atom):     -4.5939
# Relative energy1 (eV/atom):       0.3215
# Relative energy2 (eV/atom):       0.5438
# Volume of the unit cell (A^3):    223.62
# Density (g/cm^3):                 3.0988
# Tool:                             VASP
# Pseudopotential:                  PAW
# Note:                             ENCUT=400eV, k-spacing_relax=0.20/Angstrom, k-spacing_bandgap=0.15/Angstrom
# Created by:                       C.Kim, T.D.Huan, S.Krishnan, R. Ramprasad