data_1
_audit_creation_method   'Generated by vasp2cif'
_cell_length_a    9.31642287626
_cell_length_b    4.2489816076
_cell_length_c    6.29235479915
_cell_angle_alpha    76.1279619862
_cell_angle_beta    96.9866471157
_cell_angle_gamma    117.15676382

_symmetry_space_group_name_H-M    'P 1'
loop_
_atom_site_label
_atom_site_type_symbol
_atom_site_fract_x
_atom_site_fract_y
_atom_site_fract_z
_atom_site_occupancy
C1   C   0.467386896772212   0.205722615013926   0.527008122983887   1.0
H2   H   0.369404092861664   0.347335942262248   0.743043496014259   1.0
H3   H   0.576252612432732   0.566183928880164   0.731467255328212   1.0
H4   H   0.606656214333789   0.129307255753261   0.332734563893865   1.0
H5   H   0.713258872720175   0.440529635845358   0.498095224841798   1.0
H6   H   0.220471175230401   0.935174916931963   0.514358169765508   1.0
H7   H   0.320071022778876   0.827645610582579   0.347068822573860   1.0
Br8   Br   0.968161760139616   0.990774335147336   0.573256443269713   1.0
Br9   Br   0.237838499828264   0.548840336274395   0.019470090809392   1.0
Br10   Br   0.707902222835479   0.022022149495370   0.015007777818447   1.0
N11   N   0.470635462202345   0.406026842302445   0.665389141447214   1.0
N12   N   0.325880198518000   0.961079017266286   0.464578345861547   1.0
N13   N   0.605890953215990   0.250780401025160   0.453223226276037   1.0
Sn14   Sn   0.971930016130656   0.797327013219636   0.033309319116235   1.0




# HOIP entry ID:                    0730
# Khazana ID:                       2580
# Organic cation source:            B.Saparov et al., Chem. Rev. 116, 4558 (2016)
# Label:                            Guanidinium Tin Bromide
# Material class:                   Hybrid organic-inorganic perovskite ( MC_ino )
# Geometry class:                   Bulk crystalline materials ( GC_cry )
# Organic cation chemical formula:  C(NH2)3
# Number of atom types:             5
# Total number of atoms:            14
# Atom types:                       C H N  Sn Br
# Number of each atom:              1 6 3  1 3
# Bandgap, HSE06 (eV):              3.3356
# Bandgap, GGA (eV):                2.5273
# Kpoint for VBM:                   -0.375, -0.0909, 0.4286
# Kpoint for CBM:                   0, 0.0455, 0.5
# Dielectric constant, electronic:  4.0147
# Dielectric constant, ionic:       11.2372
# Dielectric constant, total:       15.2519
# Refractive index:                 2.0037
# Atomization energy (eV/atom):     -4.5994
# Relative energy1 (eV/atom):       0.3161
# Relative energy2 (eV/atom):       0.5384
# Volume of the unit cell (A^3):    215.14
# Density (g/cm^3):                 3.221
# Tool:                             VASP
# Pseudopotential:                  PAW
# Note:                             ENCUT=400eV, k-spacing_relax=0.20/Angstrom, k-spacing_bandgap=0.15/Angstrom
# Created by:                       C.Kim, T.D.Huan, S.Krishnan, R. Ramprasad