data_1
_audit_creation_method   'Generated by vasp2cif'
_cell_length_a    6.03650571322
_cell_length_b    7.71754308027
_cell_length_c    4.30644106662
_cell_angle_alpha    105.673140709
_cell_angle_beta    107.609183501
_cell_angle_gamma    82.6577457631

_symmetry_space_group_name_H-M    'P 1'
loop_
_atom_site_label
_atom_site_type_symbol
_atom_site_fract_x
_atom_site_fract_y
_atom_site_fract_z
_atom_site_occupancy
Br1   Br   0.982112842327844   0.177014750581730   0.495307068427494   1.0
Br2   Br   0.547010376453462   0.905430366689181   0.674137750604726   1.0
Br3   Br   0.973677749455612   0.596723347687531   0.211221882243656   1.0
H4   H   0.361214664866163   0.465038899547613   0.333499840444110   1.0
H5   H   0.633123248123468   0.354417616348263   0.458007136598822   1.0
H6   H   0.580540298928320   0.578161540252588   0.628206666066451   1.0
H7   H   0.308495658495375   0.329947831546309   0.678677984862707   1.0
Sn8   Sn   0.037814842829682   0.883089297235413   0.887861700750333   1.0
N9   N   0.509333278478822   0.452135625046108   0.529184539194474   1.0
O10   O   0.440417040041285   0.412560725065219   0.795885430807158   1.0




# HOIP entry ID:                    0731
# Khazana ID:                       2581
# Organic cation source:            G.Kieslich et al., Chem. Sci. 6, 3430 (2015)
# Label:                            Hydroxylammonium Tin Bromide
# Material class:                   Hybrid organic-inorganic perovskite ( MC_ino )
# Geometry class:                   Bulk crystalline materials ( GC_cry )
# Organic cation chemical formula:  OHNH3
# Number of atom types:             5
# Total number of atoms:            10
# Atom types:                        H N O Sn Br
# Number of each atom:               4 1  1 3
# Bandgap, HSE06 (eV):              3.4844
# Bandgap, GGA (eV):                2.5316
# Kpoint for VBM:                   0.5, 0.5, 0
# Kpoint for CBM:                   0.4737, 0.5, 0
# Dielectric constant, electronic:  4.3671
# Dielectric constant, ionic:       12.4314
# Dielectric constant, total:       16.7985
# Refractive index:                 2.0898
# Atomization energy (eV/atom):     -3.7654
# Relative energy1 (eV/atom):       0.2944
# Relative energy2 (eV/atom):       0.6056
# Volume of the unit cell (A^3):    183.88
# Density (g/cm^3):                 3.5334
# Tool:                             VASP
# Pseudopotential:                  PAW
# Note:                             ENCUT=400eV, k-spacing_relax=0.20/Angstrom, k-spacing_bandgap=0.15/Angstrom
# Created by:                       C.Kim, T.D.Huan, S.Krishnan, R. Ramprasad