data_1
_audit_creation_method   'Generated by vasp2cif'
_cell_length_a    6.00099387008
_cell_length_b    4.4051765359
_cell_length_c    7.46341020112
_cell_angle_alpha    106.855369011
_cell_angle_beta    86.0565666079
_cell_angle_gamma    91.5947710824

_symmetry_space_group_name_H-M    'P 1'
loop_
_atom_site_label
_atom_site_type_symbol
_atom_site_fract_x
_atom_site_fract_y
_atom_site_fract_z
_atom_site_occupancy
Br1   Br   0.979706419863241   0.169566082353526   0.712896208593151   1.0
Br2   Br   0.488741983192447   0.830276958153782   0.041046273732128   1.0
Br3   Br   0.951288790387608   0.456511060960480   0.302639942912897   1.0
H4   H   0.503314949104222   0.914669550948183   0.372448566794773   1.0
H5   H   0.639440864581921   0.946138027092701   0.571696466888483   1.0
H6   H   0.368617075115829   0.068758623642353   0.590679014625671   1.0
H7   H   0.271428754323054   0.554590341094887   0.446700152609083   1.0
Sn8   Sn   0.980281516796467   0.813659217868263   0.008774136586915   1.0
N9   N   0.485872285779649   0.905589310547938   0.511616055743005   1.0
O10   O   0.412827360855573   0.591450827337880   0.515283181513816   1.0




# HOIP entry ID:                    0732
# Khazana ID:                       2582
# Organic cation source:            G.Kieslich et al., Chem. Sci. 6, 3430 (2015)
# Label:                            Hydroxylammonium Tin Bromide
# Material class:                   Hybrid organic-inorganic perovskite ( MC_ino )
# Geometry class:                   Bulk crystalline materials ( GC_cry )
# Organic cation chemical formula:  OHNH3
# Number of atom types:             5
# Total number of atoms:            10
# Atom types:                        H N O Sn Br
# Number of each atom:               4 1  1 3
# Bandgap, HSE06 (eV):              2.6986
# Bandgap, GGA (eV):                1.9845
# Kpoint for VBM:                   0.5, -0.2778, 0.1667
# Kpoint for CBM:                   0.5, 0.3889, 0.3333
# Dielectric constant, electronic:  4.6816
# Dielectric constant, ionic:       23.6275
# Dielectric constant, total:       28.3091
# Refractive index:                 2.1637
# Atomization energy (eV/atom):     -3.7712
# Relative energy1 (eV/atom):       0.2886
# Relative energy2 (eV/atom):       0.5999
# Volume of the unit cell (A^3):    188.37
# Density (g/cm^3):                 3.4492
# Tool:                             VASP
# Pseudopotential:                  PAW
# Note:                             ENCUT=400eV, k-spacing_relax=0.20/Angstrom, k-spacing_bandgap=0.15/Angstrom
# Created by:                       C.Kim, T.D.Huan, S.Krishnan, R. Ramprasad