data_1
_audit_creation_method   'Generated by vasp2cif'
_cell_length_a    7.45381299749
_cell_length_b    4.44142770943
_cell_length_c    5.98043616913
_cell_angle_alpha    91.8162923278
_cell_angle_beta    95.0631402502
_cell_angle_gamma    72.2073972848

_symmetry_space_group_name_H-M    'P 1'
loop_
_atom_site_label
_atom_site_type_symbol
_atom_site_fract_x
_atom_site_fract_y
_atom_site_fract_z
_atom_site_occupancy
Br1   Br   0.758445410670362   0.349328366543396   0.148268945792289   1.0
Br2   Br   0.107060600464294   0.697422315371533   0.604600704523719   1.0
Br3   Br   0.345709261906414   0.050462301000387   0.143136610395246   1.0
H4   H   0.431585113652979   0.370471121903257   0.603975674540102   1.0
H5   H   0.637838744356401   0.199760369430614   0.482578841725953   1.0
H6   H   0.645441682069738   0.318339373648669   0.757533305088678   1.0
H7   H   0.500390926466800   0.953293656025146   0.832942928258966   1.0
Sn8   Sn   0.053861406134516   0.696722397556201   0.121228815908445   1.0
N9   N   0.571862377469799   0.225475782869296   0.631066232183471   1.0
O10   O   0.576444476808739   0.912664315651483   0.698057941583173   1.0




# HOIP entry ID:                    0733
# Khazana ID:                       2583
# Organic cation source:            G.Kieslich et al., Chem. Sci. 6, 3430 (2015)
# Label:                            Hydroxylammonium Tin Bromide
# Material class:                   Hybrid organic-inorganic perovskite ( MC_ino )
# Geometry class:                   Bulk crystalline materials ( GC_cry )
# Organic cation chemical formula:  OHNH3
# Number of atom types:             5
# Total number of atoms:            10
# Atom types:                        H N O Sn Br
# Number of each atom:               4 1  1 3
# Bandgap, HSE06 (eV):              2.8595
# Bandgap, GGA (eV):                2.0988
# Kpoint for VBM:                   0.1, 0.3, 0.5
# Kpoint for CBM:                   0.5, 0, 0.3571
# Dielectric constant, electronic:  4.576
# Dielectric constant, ionic:       15.3327
# Dielectric constant, total:       19.9087
# Refractive index:                 2.1392
# Atomization energy (eV/atom):     -3.7692
# Relative energy1 (eV/atom):       0.2906
# Relative energy2 (eV/atom):       0.6018
# Volume of the unit cell (A^3):    187.78
# Density (g/cm^3):                 3.46
# Tool:                             VASP
# Pseudopotential:                  PAW
# Note:                             ENCUT=400eV, k-spacing_relax=0.20/Angstrom, k-spacing_bandgap=0.15/Angstrom
# Created by:                       C.Kim, T.D.Huan, S.Krishnan, R. Ramprasad