data_1
_audit_creation_method   'Generated by vasp2cif'
_cell_length_a    5.96059586149
_cell_length_b    4.2960655371
_cell_length_c    7.48731867314
_cell_angle_alpha    105.515734179
_cell_angle_beta    83.384891234
_cell_angle_gamma    93.4404669779

_symmetry_space_group_name_H-M    'P 1'
loop_
_atom_site_label
_atom_site_type_symbol
_atom_site_fract_x
_atom_site_fract_y
_atom_site_fract_z
_atom_site_occupancy
Br1   Br   0.859336332457083   0.892062160847567   0.765409889757425   1.0
Br2   Br   0.326995065815126   0.563530677758677   0.981898855534985   1.0
Br3   Br   0.919876872827316   0.173386661907735   0.350993760124354   1.0
H4   H   0.427660973915011   0.172086228858138   0.511727981096517   1.0
H5   H   0.510890378637737   0.983293233578611   0.663964082849437   1.0
H6   H   0.226240418510158   0.996406000412814   0.642651561763627   1.0
H7   H   0.319805785330209   0.681004424589827   0.334866230162370   1.0
Sn8   Sn   0.849915187811784   0.531887997685225   0.069688601775468   1.0
N9   N   0.390021424308147   0.983833329022223   0.573427627411470   1.0
O10   O   0.414527560387426   0.673839285339136   0.434771409524460   1.0




# HOIP entry ID:                    0734
# Khazana ID:                       2584
# Organic cation source:            G.Kieslich et al., Chem. Sci. 6, 3430 (2015)
# Label:                            Hydroxylammonium Tin Bromide
# Material class:                   Hybrid organic-inorganic perovskite ( MC_ino )
# Geometry class:                   Bulk crystalline materials ( GC_cry )
# Organic cation chemical formula:  OHNH3
# Number of atom types:             5
# Total number of atoms:            10
# Atom types:                        H N O Sn Br
# Number of each atom:               4 1  1 3
# Bandgap, HSE06 (eV):              3.2043
# Bandgap, GGA (eV):                2.3572
# Kpoint for VBM:                   0.5, 0.0556, 0.5
# Kpoint for CBM:                   0.5, 0.5, 0
# Dielectric constant, electronic:  4.5088
# Dielectric constant, ionic:       12.7083
# Dielectric constant, total:       17.2171
# Refractive index:                 2.1234
# Atomization energy (eV/atom):     -3.7631
# Relative energy1 (eV/atom):       0.2967
# Relative energy2 (eV/atom):       0.6079
# Volume of the unit cell (A^3):    183.43
# Density (g/cm^3):                 3.542
# Tool:                             VASP
# Pseudopotential:                  PAW
# Note:                             ENCUT=400eV, k-spacing_relax=0.20/Angstrom, k-spacing_bandgap=0.15/Angstrom
# Created by:                       C.Kim, T.D.Huan, S.Krishnan, R. Ramprasad