data_1
_audit_creation_method   'Generated by vasp2cif'
_cell_length_a    7.60957748141
_cell_length_b    4.31927500934
_cell_length_c    6.04278869752
_cell_angle_alpha    86.2465558254
_cell_angle_beta    75.482689301
_cell_angle_gamma    75.1529108013

_symmetry_space_group_name_H-M    'P 1'
loop_
_atom_site_label
_atom_site_type_symbol
_atom_site_fract_x
_atom_site_fract_y
_atom_site_fract_z
_atom_site_occupancy
Br1   Br   0.765006570746422   0.371867237975962   0.178317370005011   1.0
Br2   Br   0.172254620929401   0.704876669680687   0.761792936459543   1.0
Br3   Br   0.342133246963527   0.101846962095110   0.218931111864791   1.0
H4   H   0.420084830915378   0.992394217350217   0.654924092684709   1.0
H5   H   0.590904370538787   0.187895271133279   0.528960596006087   1.0
H6   H   0.488401260186890   0.218642638112648   0.817804071893768   1.0
H7   H   0.662747714177677   0.763339922999272   0.875699350396623   1.0
Sn8   Sn   0.050304007201724   0.722883207800351   0.241519140377839   1.0
N9   N   0.533658349160390   0.071326271904489   0.675509617591629   1.0
O10   O   0.681485029179832   0.794157600948012   0.707531712719998   1.0




# HOIP entry ID:                    0735
# Khazana ID:                       2585
# Organic cation source:            G.Kieslich et al., Chem. Sci. 6, 3430 (2015)
# Label:                            Hydroxylammonium Tin Bromide
# Material class:                   Hybrid organic-inorganic perovskite ( MC_ino )
# Geometry class:                   Bulk crystalline materials ( GC_cry )
# Organic cation chemical formula:  OHNH3
# Number of atom types:             5
# Total number of atoms:            10
# Atom types:                        H N O Sn Br
# Number of each atom:               4 1  1 3
# Bandgap, HSE06 (eV):              3.335
# Bandgap, GGA (eV):                2.4585
# Kpoint for VBM:                   0.5, 0, 0.5
# Kpoint for CBM:                   0.5, 0, 0.0714
# Dielectric constant, electronic:  4.3256
# Dielectric constant, ionic:       12.8401
# Dielectric constant, total:       17.1657
# Refractive index:                 2.0798
# Atomization energy (eV/atom):     -3.7625
# Relative energy1 (eV/atom):       0.2973
# Relative energy2 (eV/atom):       0.6085
# Volume of the unit cell (A^3):    185.85
# Density (g/cm^3):                 3.4959
# Tool:                             VASP
# Pseudopotential:                  PAW
# Note:                             ENCUT=400eV, k-spacing_relax=0.20/Angstrom, k-spacing_bandgap=0.15/Angstrom
# Created by:                       C.Kim, T.D.Huan, S.Krishnan, R. Ramprasad