data_1
_audit_creation_method   'Generated by vasp2cif'
_cell_length_a    6.22238074783
_cell_length_b    4.35293933484
_cell_length_c    7.34257020647
_cell_angle_alpha    105.268884224
_cell_angle_beta    94.7083792064
_cell_angle_gamma    81.7507395071

_symmetry_space_group_name_H-M    'P 1'
loop_
_atom_site_label
_atom_site_type_symbol
_atom_site_fract_x
_atom_site_fract_y
_atom_site_fract_z
_atom_site_occupancy
Br1   Br   0.838337608002384   0.149810020228422   0.766821198939581   1.0
Br2   Br   0.320378734656998   0.638307158103935   0.979611093447296   1.0
Br3   Br   0.993210329286278   0.386758612870047   0.357550356248730   1.0
H4   H   0.231428931357271   0.087661687532055   0.545851094166672   1.0
H5   H   0.482724723788387   0.088664670143316   0.662021936867013   1.0
H6   H   0.298867201605105   0.879263956662939   0.716524491830803   1.0
H7   H   0.326992591357396   0.575669257768006   0.399656965101009   1.0
Sn8   Sn   0.874032896821795   0.777946798763118   0.060043106453819   1.0
N9   N   0.355134562981583   0.955189719044675   0.607651619927438   1.0
O10   O   0.453802420142850   0.681868118883514   0.466638137017611   1.0




# HOIP entry ID:                    0736
# Khazana ID:                       2586
# Organic cation source:            G.Kieslich et al., Chem. Sci. 6, 3430 (2015)
# Label:                            Hydroxylammonium Tin Bromide
# Material class:                   Hybrid organic-inorganic perovskite ( MC_ino )
# Geometry class:                   Bulk crystalline materials ( GC_cry )
# Organic cation chemical formula:  OHNH3
# Number of atom types:             5
# Total number of atoms:            10
# Atom types:                        H N O Sn Br
# Number of each atom:               4 1  1 3
# Bandgap, HSE06 (eV):              3.5229
# Bandgap, GGA (eV):                2.6702
# Kpoint for VBM:                   0.5, 0.0556, 0.5
# Kpoint for CBM:                   0.25, 0, 0.4167
# Dielectric constant, electronic:  4.1754
# Dielectric constant, ionic:       11.4825
# Dielectric constant, total:       15.6579
# Refractive index:                 2.0434
# Atomization energy (eV/atom):     -3.7631
# Relative energy1 (eV/atom):       0.2967
# Relative energy2 (eV/atom):       0.6079
# Volume of the unit cell (A^3):    189.67
# Density (g/cm^3):                 3.4255
# Tool:                             VASP
# Pseudopotential:                  PAW
# Note:                             ENCUT=400eV, k-spacing_relax=0.20/Angstrom, k-spacing_bandgap=0.15/Angstrom
# Created by:                       C.Kim, T.D.Huan, S.Krishnan, R. Ramprasad