data_1
_audit_creation_method   'Generated by vasp2cif'
_cell_length_a    7.67604680393
_cell_length_b    4.28602407653
_cell_length_c    5.92569744316
_cell_angle_alpha    85.632511646
_cell_angle_beta    96.9259277877
_cell_angle_gamma    72.9739412522

_symmetry_space_group_name_H-M    'P 1'
loop_
_atom_site_label
_atom_site_type_symbol
_atom_site_fract_x
_atom_site_fract_y
_atom_site_fract_z
_atom_site_occupancy
Br1   Br   0.305078714270010   0.019193523840443   0.924206579791374   1.0
Br2   Br   0.908943375359257   0.776909293253020   0.534535246923305   1.0
Br3   Br   0.725544036222736   0.312482433112592   0.998191633116974   1.0
H4   H   0.602997410397244   0.484174857981500   0.323516940015814   1.0
H5   H   0.619922995517378   0.492397973649382   0.614662241296273   1.0
H6   H   0.364357174045928   0.367718355810723   0.614284982149414   1.0
H7   H   0.464921185160932   0.808213814752158   0.431327774781224   1.0
Sn8   Sn   0.023789503238625   0.645722717080403   0.007728992106330   1.0
N9   N   0.530837395342516   0.557730789182003   0.458742090393336   1.0
O10   O   0.394938210445261   0.380216241337827   0.455683519425975   1.0




# HOIP entry ID:                    0737
# Khazana ID:                       2587
# Organic cation source:            G.Kieslich et al., Chem. Sci. 6, 3430 (2015)
# Label:                            Hydroxylammonium Tin Bromide
# Material class:                   Hybrid organic-inorganic perovskite ( MC_ino )
# Geometry class:                   Bulk crystalline materials ( GC_cry )
# Organic cation chemical formula:  OHNH3
# Number of atom types:             5
# Total number of atoms:            10
# Atom types:                        H N O Sn Br
# Number of each atom:               4 1  1 3
# Bandgap, HSE06 (eV):              3.3509
# Bandgap, GGA (eV):                2.4653
# Kpoint for VBM:                   0.5, 0, 0.5
# Kpoint for CBM:                   0.5, 0, 0.0714
# Dielectric constant, electronic:  4.3828
# Dielectric constant, ionic:       10.3539
# Dielectric constant, total:       14.7367
# Refractive index:                 2.0935
# Atomization energy (eV/atom):     -3.7649
# Relative energy1 (eV/atom):       0.2949
# Relative energy2 (eV/atom):       0.6062
# Volume of the unit cell (A^3):    183.77
# Density (g/cm^3):                 3.5355
# Tool:                             VASP
# Pseudopotential:                  PAW
# Note:                             ENCUT=400eV, k-spacing_relax=0.20/Angstrom, k-spacing_bandgap=0.15/Angstrom
# Created by:                       C.Kim, T.D.Huan, S.Krishnan, R. Ramprasad