data_1
_audit_creation_method   'Generated by vasp2cif'
_cell_length_a    6.03100665014
_cell_length_b    6.0594733099
_cell_length_c    5.99103557332
_cell_angle_alpha    81.0904722686
_cell_angle_beta    84.020857855
_cell_angle_gamma    85.5396087286

_symmetry_space_group_name_H-M    'P 1'
loop_
_atom_site_label
_atom_site_type_symbol
_atom_site_fract_x
_atom_site_fract_y
_atom_site_fract_z
_atom_site_occupancy
Sn1   Sn   0.615673027374875   0.338305953424246   0.494123192818634   1.0
Br2   Br   0.658590792531896   0.865794210063704   0.487874573684294   1.0
Br3   Br   0.109314248148870   0.340914245548113   0.489180276544012   1.0
Br4   Br   0.610016441531563   0.419519865253100   0.014516633086480   1.0
N5   N   0.093816526681266   0.745532715360270   0.861178934040701   1.0
N6   N   0.233701543018952   0.936784992030915   0.119731859936479   1.0
H7   H   0.222406636341631   0.626091808437550   0.866493639851974   1.0
H8   H   0.372775437528404   0.831599334826109   0.137804410432402   1.0
H9   H   0.972520358141310   0.736899102674897   0.757223663839369   1.0
H10   H   0.208281802851317   0.060510425139917   0.219085645131983   1.0
H11   H   0.937457918237165   0.027000869939897   0.977169246369783   1.0
C12   C   0.081605267612723   0.908036477301259   0.985517924263966   1.0




# HOIP entry ID:                    0738
# Khazana ID:                       2588
# Organic cation source:            T.D.Huan et al., Phys. Rev. B 93,094105(2016)
# Label:                            Formamidinium Tin Bromide
# Material class:                   Hybrid organic-inorganic perovskite ( MC_ino )
# Geometry class:                   Bulk crystalline materials ( GC_cry )
# Organic cation chemical formula:  HC(NH2)2
# Number of atom types:             5
# Total number of atoms:            12
# Atom types:                       C H N  Sn Br
# Number of each atom:              1 5 2  1 3
# Bandgap, HSE06 (eV):              1.9874
# Bandgap, GGA (eV):                1.3702
# Kpoint for VBM:                   0.5, 0.5, 0.5
# Kpoint for CBM:                   0.5, 0.5, 0.5
# Dielectric constant, electronic:  4.7927
# Dielectric constant, ionic:       63.4103
# Dielectric constant, total:       68.203
# Refractive index:                 2.1892
# Atomization energy (eV/atom):     -4.408
# Relative energy1 (eV/atom):       -0.1512
# Relative energy2 (eV/atom):       0.1082
# Volume of the unit cell (A^3):    214.7
# Density (g/cm^3):                 3.1114
# Tool:                             VASP
# Pseudopotential:                  PAW
# Note:                             ENCUT=400eV, k-spacing_relax=0.20/Angstrom, k-spacing_bandgap=0.15/Angstrom
# Created by:                       C.Kim, T.D.Huan, S.Krishnan, R. Ramprasad