data_1
_audit_creation_method   'Generated by vasp2cif'
_cell_length_a    6.02119115506
_cell_length_b    6.00938213708
_cell_length_c    6.0274019383
_cell_angle_alpha    89.0206104345
_cell_angle_beta    100.704853096
_cell_angle_gamma    92.5832774254

_symmetry_space_group_name_H-M    'P 1'
loop_
_atom_site_label
_atom_site_type_symbol
_atom_site_fract_x
_atom_site_fract_y
_atom_site_fract_z
_atom_site_occupancy
Sn1   Sn   0.501507953128019   0.386146478175569   0.660360240841911   1.0
Br2   Br   0.499411751475670   0.880519378994585   0.640413228074962   1.0
Br3   Br   0.480870843051541   0.344472346130502   0.146160625976556   1.0
Br4   Br   0.025141787622616   0.381306915843709   0.580536400177095   1.0
N5   N   0.140430004648565   0.808216272770487   0.037438424942117   1.0
N6   N   0.863856800166971   0.875174295154991   0.249515988166010   1.0
H7   H   0.183389393298000   0.658715355101208   0.111986285983747   1.0
H8   H   0.887627986282766   0.731157371103130   0.341629594748724   1.0
H9   H   0.230320467244987   0.863356140927728   0.918141009480408   1.0
H10   H   0.746636141628386   0.979459690210241   0.284102151134775   1.0
H11   H   0.955240916515969   0.089989946613827   0.008066880859893   1.0
C12   C   0.984933918607176   0.931445764225401   0.094849152614287   1.0




# HOIP entry ID:                    0739
# Khazana ID:                       2589
# Organic cation source:            T.D.Huan et al., Phys. Rev. B 93,094105(2016)
# Label:                            Formamidinium Tin Bromide
# Material class:                   Hybrid organic-inorganic perovskite ( MC_ino )
# Geometry class:                   Bulk crystalline materials ( GC_cry )
# Organic cation chemical formula:  HC(NH2)2
# Number of atom types:             5
# Total number of atoms:            12
# Atom types:                       C H N  Sn Br
# Number of each atom:              1 5 2  1 3
# Bandgap, HSE06 (eV):              2.0614
# Bandgap, GGA (eV):                1.4457
# Kpoint for VBM:                   0.5, 0.5, 0.5
# Kpoint for CBM:                   0.5, 0.5, 0.4474
# Dielectric constant, electronic:  4.8374
# Dielectric constant, ionic:       40.1842
# Dielectric constant, total:       45.0217
# Refractive index:                 2.1994
# Atomization energy (eV/atom):     -4.4074
# Relative energy1 (eV/atom):       -0.1505
# Relative energy2 (eV/atom):       0.1088
# Volume of the unit cell (A^3):    214.07
# Density (g/cm^3):                 3.1206
# Tool:                             VASP
# Pseudopotential:                  PAW
# Note:                             ENCUT=400eV, k-spacing_relax=0.20/Angstrom, k-spacing_bandgap=0.15/Angstrom
# Created by:                       C.Kim, T.D.Huan, S.Krishnan, R. Ramprasad