data_1
_audit_creation_method   'Generated by vasp2cif'
_cell_length_a    5.99703988157
_cell_length_b    6.23910250298
_cell_length_c    6.13319810062
_cell_angle_alpha    100.931270258
_cell_angle_beta    99.431267847
_cell_angle_gamma    74.187141905

_symmetry_space_group_name_H-M    'P 1'
loop_
_atom_site_label
_atom_site_type_symbol
_atom_site_fract_x
_atom_site_fract_y
_atom_site_fract_z
_atom_site_occupancy
Sn1   Sn   0.367648428692391   0.499834791247324   0.435588881140276   1.0
Br2   Br   0.515648014859948   0.931368596686838   0.237099346008442   1.0
Br3   Br   0.527838025467688   0.330197339236271   0.834443113547195   1.0
Br4   Br   0.951655014091067   0.369589407703820   0.424209719727372   1.0
N5   N   0.915440816596949   0.694116294761962   0.983160813673834   1.0
N6   N   0.190237374125914   0.854009293379917   0.673045483789522   1.0
H7   H   0.107818517959629   0.802941255496457   0.780873994936478   1.0
H8   H   0.070905008549580   0.973876768060975   0.591767918779937   1.0
H9   H   0.846783931274828   0.555997328200853   0.960098326412052   1.0
H10   H   0.311678019003580   0.932845544250171   0.765992457570867   1.0
H11   H   0.866446888998993   0.032776488947143   0.123249264858941   1.0
C12   C   0.814239960379410   0.874976892028180   0.088480679555147   1.0




# HOIP entry ID:                    0740
# Khazana ID:                       2590
# Organic cation source:            T.D.Huan et al., Phys. Rev. B 93,094105(2016)
# Label:                            Formamidinium Tin Bromide
# Material class:                   Hybrid organic-inorganic perovskite ( MC_ino )
# Geometry class:                   Bulk crystalline materials ( GC_cry )
# Organic cation chemical formula:  HC(NH2)2
# Number of atom types:             5
# Total number of atoms:            12
# Atom types:                       C H N  Sn Br
# Number of each atom:              1 5 2  1 3
# Bandgap, HSE06 (eV):              3.4693
# Bandgap, GGA (eV):                2.5796
# Kpoint for VBM:                   0.5, 0.5, 0.5
# Kpoint for CBM:                   0.5, 0.5, 0.5
# Dielectric constant, electronic:  3.8169
# Dielectric constant, ionic:       4.0642
# Dielectric constant, total:       7.8811
# Refractive index:                 1.9537
# Atomization energy (eV/atom):     -4.2671
# Relative energy1 (eV/atom):       -0.0103
# Relative energy2 (eV/atom):       0.2491
# Volume of the unit cell (A^3):    215.26
# Density (g/cm^3):                 3.1034
# Tool:                             VASP
# Pseudopotential:                  PAW
# Note:                             ENCUT=400eV, k-spacing_relax=0.20/Angstrom, k-spacing_bandgap=0.15/Angstrom
# Created by:                       C.Kim, T.D.Huan, S.Krishnan, R. Ramprasad