data_1
_audit_creation_method   'Generated by vasp2cif'
_cell_length_a    6.45783670171
_cell_length_b    6.47034658103
_cell_length_c    6.4448920009
_cell_angle_alpha    90.0042862263
_cell_angle_beta    91.3181666601
_cell_angle_gamma    89.4166701435

_symmetry_space_group_name_H-M    'P 1'
loop_
_atom_site_label
_atom_site_type_symbol
_atom_site_fract_x
_atom_site_fract_y
_atom_site_fract_z
_atom_site_occupancy
C1   C   0.307127110147931   0.355606632562981   0.478733014351576   1.0
C2   C   0.597879413687799   0.517692731855007   0.293023423598264   1.0
C3   C   0.594907188736897   0.520783960995999   0.676791718227904   1.0
C4   C   0.343536398464629   0.735450246730814   0.476985266645414   1.0
H5   H   0.455882428009360   0.859963272923210   0.479622630073735   1.0
H6   H   0.247951984185114   0.740868939527502   0.336144336544905   1.0
H7   H   0.212376224519083   0.367549773470003   0.337366949312887   1.0
H8   H   0.499205509257891   0.528162900568297   0.154049622658064   1.0
H9   H   0.494154034235002   0.534228114169821   0.809402828261092   1.0
H10   H   0.702872159722865   0.648273178712820   0.672859976698128   1.0
H11   H   0.705959163540662   0.645567675889744   0.300545836439206   1.0
H12   H   0.248368040533094   0.741326224871450   0.613564089675570   1.0
H13   H   0.677390819710681   0.373414938719677   0.678614996274149   1.0
H14   H   0.393477950663481   0.210245708184772   0.483262976759562   1.0
H15   H   0.680997618344179   0.370398988141673   0.298478291107351   1.0
H16   H   0.212198042537480   0.371402936762031   0.615170151743094   1.0
Br17   Br   0.407822942314191   0.047487694176020   0.976940797394384   1.0
Br18   Br   0.032245331184789   0.575144256429873   0.981026255997563   1.0
Br19   Br   0.891773188286507   0.024455968503872   0.535368277279716   1.0
N20   N   0.460929030343493   0.531460775016868   0.480705964803370   1.0
Sn21   Sn   0.977975421574833   0.009265081787575   0.971992596152930   1.0




# HOIP entry ID:                    0741
# Khazana ID:                       2591
# Organic cation source:            B.Saparov et al., Chem. Rev. 116, 4558 (2016)
# Label:                            Tetramethylammonium Tin Bromide
# Material class:                   Hybrid organic-inorganic perovskite ( MC_ino )
# Geometry class:                   Bulk crystalline materials ( GC_cry )
# Organic cation chemical formula:  (CH3)4N
# Number of atom types:             5
# Total number of atoms:            21
# Atom types:                       C H N  Sn Br
# Number of each atom:              4 12 1  1 3
# Bandgap, HSE06 (eV):              2.9855
# Bandgap, GGA (eV):                2.2126
# Kpoint for VBM:                   0.5, 0.5, 0.5
# Kpoint for CBM:                   0.5, 0.5, 0.5
# Dielectric constant, electronic:  3.6372
# Dielectric constant, ionic:       2.7421
# Dielectric constant, total:       6.3793
# Refractive index:                 1.9071
# Atomization energy (eV/atom):     -4.4776
# Relative energy1 (eV/atom):       -0.0649
# Relative energy2 (eV/atom):       0.0618
# Volume of the unit cell (A^3):    269.21
# Density (g/cm^3):                 2.6608
# Tool:                             VASP
# Pseudopotential:                  PAW
# Note:                             ENCUT=400eV, k-spacing_relax=0.20/Angstrom, k-spacing_bandgap=0.15/Angstrom
# Created by:                       C.Kim, T.D.Huan, S.Krishnan, R. Ramprasad