data_1
_audit_creation_method   'Generated by vasp2cif'
_cell_length_a    6.43559959354
_cell_length_b    6.54641248654
_cell_length_c    6.41982132037
_cell_angle_alpha    90.3109652127
_cell_angle_beta    88.0914873867
_cell_angle_gamma    90.2621040042

_symmetry_space_group_name_H-M    'P 1'
loop_
_atom_site_label
_atom_site_type_symbol
_atom_site_fract_x
_atom_site_fract_y
_atom_site_fract_z
_atom_site_occupancy
C1   C   0.382412241417093   0.383809063193212   0.327453761393429   1.0
C2   C   0.628375353827614   0.578030933652187   0.542110686805501   1.0
C3   C   0.403604607056842   0.309281479206504   0.703708634068974   1.0
C4   C   0.249710823276715   0.635849114860520   0.585748017511648   1.0
H5   H   0.272344346234348   0.698769923719404   0.740792197227492   1.0
H6   H   0.098104963379747   0.562027558775391   0.578344480239124   1.0
H7   H   0.229034274345196   0.313329173433722   0.330145048893797   1.0
H8   H   0.648645435827703   0.644568057018134   0.695828442836046   1.0
H9   H   0.248248491321895   0.243025820238749   0.703547166938812   1.0
H10   H   0.435185604109179   0.377137267491314   0.854658539816896   1.0
H11   H   0.745471068854890   0.461885738879367   0.507640207723632   1.0
H12   H   0.266652907544675   0.755041073158495   0.468731530519776   1.0
H13   H   0.520590849521582   0.195152636909647   0.662235974095630   1.0
H14   H   0.392604251240726   0.505709299090867   0.212584086678653   1.0
H15   H   0.632487504393168   0.695761667733635   0.423440487991854   1.0
H16   H   0.502374501362112   0.270489032915677   0.296502212615707   1.0
Br17   Br   0.480050454757261   0.910883483464524   0.053384369286903   1.0
Br18   Br   0.910039106278781   0.038751142952215   0.495585525620044   1.0
Br19   Br   0.899971228572888   0.414031155790603   0.020452326093583   1.0
N20   N   0.415938723015628   0.476552898672821   0.540602817977550   1.0
Sn21   Sn   0.912263263661913   0.991063478842982   0.058523485664949   1.0




# HOIP entry ID:                    0742
# Khazana ID:                       2592
# Organic cation source:            B.Saparov et al., Chem. Rev. 116, 4558 (2016)
# Label:                            Tetramethylammonium Tin Bromide
# Material class:                   Hybrid organic-inorganic perovskite ( MC_ino )
# Geometry class:                   Bulk crystalline materials ( GC_cry )
# Organic cation chemical formula:  (CH3)4N
# Number of atom types:             5
# Total number of atoms:            21
# Atom types:                       C H N  Sn Br
# Number of each atom:              4 12 1  1 3
# Bandgap, HSE06 (eV):              3.1277
# Bandgap, GGA (eV):                2.3391
# Kpoint for VBM:                   0.5, 0.5, 0.5
# Kpoint for CBM:                   0.4737, 0.5, 0.4737
# Dielectric constant, electronic:  3.5822
# Dielectric constant, ionic:       2.5445
# Dielectric constant, total:       6.1267
# Refractive index:                 1.8927
# Atomization energy (eV/atom):     -4.4775
# Relative energy1 (eV/atom):       -0.0648
# Relative energy2 (eV/atom):       0.062
# Volume of the unit cell (A^3):    270.31
# Density (g/cm^3):                 2.65
# Tool:                             VASP
# Pseudopotential:                  PAW
# Note:                             ENCUT=400eV, k-spacing_relax=0.20/Angstrom, k-spacing_bandgap=0.15/Angstrom
# Created by:                       C.Kim, T.D.Huan, S.Krishnan, R. Ramprasad