data_1
_audit_creation_method   'Generated by vasp2cif'
_cell_length_a    6.95430480104
_cell_length_b    5.16628050275
_cell_length_c    7.84606448345
_cell_angle_alpha    90.5541433031
_cell_angle_beta    89.9676515366
_cell_angle_gamma    85.7372351802

_symmetry_space_group_name_H-M    'P 1'
loop_
_atom_site_label
_atom_site_type_symbol
_atom_site_fract_x
_atom_site_fract_y
_atom_site_fract_z
_atom_site_occupancy
C1   C   0.437470746047737   0.370566907989044   0.471315986909481   1.0
C2   C   0.562201880383370   0.736147208879757   0.633039325594879   1.0
C3   C   0.358074808076118   0.432344252833758   0.779627244096211   1.0
C4   C   0.212979521905822   0.737584753926996   0.565621876155731   1.0
H5   H   0.238837804213588   0.830121479478954   0.444579018711209   1.0
H6   H   0.182194153212301   0.881461492705711   0.666158728238997   1.0
H7   H   0.459649391152595   0.473743552995273   0.353268783930716   1.0
H8   H   0.586207777009712   0.829155532573601   0.511678200762724   1.0
H9   H   0.238654731154220   0.310427389543527   0.761454839998621   1.0
H10   H   0.322152637038350   0.579141053369611   0.877556713005539   1.0
H11   H   0.527713510973022   0.878650254217831   0.733580653119290   1.0
H12   H   0.093475802529568   0.613493693605015   0.553345890258164   1.0
H13   H   0.489710051874304   0.318624562525606   0.815107653589791   1.0
H14   H   0.568559383437297   0.255176285255445   0.505305378676020   1.0
H15   H   0.688417868901567   0.610731379895391   0.668457091560484   1.0
H16   H   0.314821301508566   0.253243282623807   0.457646239394698   1.0
Br17   Br   0.470680864051843   0.910556688378769   0.126690839112463   1.0
Br18   Br   0.930156317332646   0.232724888462691   0.335029956391615   1.0
Br19   Br   0.879631103864071   0.186602833700889   0.829150965703057   1.0
N20   N   0.392691482491280   0.568996972991464   0.612744982983330   1.0
Sn21   Sn   0.872488862842005   0.840335534046758   0.099489631806847   1.0




# HOIP entry ID:                    0743
# Khazana ID:                       2593
# Organic cation source:            B.Saparov et al., Chem. Rev. 116, 4558 (2016)
# Label:                            Tetramethylammonium Tin Bromide
# Material class:                   Hybrid organic-inorganic perovskite ( MC_ino )
# Geometry class:                   Bulk crystalline materials ( GC_cry )
# Organic cation chemical formula:  (CH3)4N
# Number of atom types:             5
# Total number of atoms:            21
# Atom types:                       C H N  Sn Br
# Number of each atom:              4 12 1  1 3
# Bandgap, HSE06 (eV):              3.748
# Bandgap, GGA (eV):                2.8559
# Kpoint for VBM:                   0.5, 0.5, 0.5
# Kpoint for CBM:                   0.1667, 0, 0.5
# Dielectric constant, electronic:  3.2026
# Dielectric constant, ionic:       2.0969
# Dielectric constant, total:       5.2995
# Refractive index:                 1.7896
# Atomization energy (eV/atom):     -4.4693
# Relative energy1 (eV/atom):       -0.0566
# Relative energy2 (eV/atom):       0.0701
# Volume of the unit cell (A^3):    281.1
# Density (g/cm^3):                 2.5483
# Tool:                             VASP
# Pseudopotential:                  PAW
# Note:                             ENCUT=400eV, k-spacing_relax=0.20/Angstrom, k-spacing_bandgap=0.15/Angstrom
# Created by:                       C.Kim, T.D.Huan, S.Krishnan, R. Ramprasad