data_1
_audit_creation_method   'Generated by vasp2cif'
_cell_length_a    6.03500205078
_cell_length_b    5.83153078875
_cell_length_c    5.95913982712
_cell_angle_alpha    92.1738930604
_cell_angle_beta    85.2390853571
_cell_angle_gamma    88.6957505267

_symmetry_space_group_name_H-M    'P 1'
loop_
_atom_site_label
_atom_site_type_symbol
_atom_site_fract_x
_atom_site_fract_y
_atom_site_fract_z
_atom_site_occupancy
Br1   Br   0.923682713391237   0.962319496959822   0.548856521687391   1.0
Br2   Br   0.471384099389738   0.988261431558385   0.043555282390550   1.0
Br3   Br   0.022908293848573   0.498067677637131   0.991986167427328   1.0
H4   H   0.282697128809481   0.561345189393570   0.538479761857850   1.0
H5   H   0.510637418240378   0.683874377679622   0.435899628993560   1.0
H6   H   0.493785657132563   0.340498482972379   0.769698406049123   1.0
H7   H   0.722058854156963   0.468895890987859   0.667315300716702   1.0
H8   H   0.524189984552464   0.624487529504378   0.824472985756422   1.0
Sn9   Sn   0.982085576453429   0.000883881510688   0.074227568197593   1.0
N10   N   0.448736543408828   0.531419669117163   0.491366523145146   1.0
N11   N   0.552563730616306   0.490976372678944   0.702751853778544   1.0




# HOIP entry ID:                    0744
# Khazana ID:                       2594
# Organic cation source:            B.Saparov et al., Chem. Rev. 116, 4558 (2016)
# Label:                            Hydrazinium Tin Bromide
# Material class:                   Hybrid organic-inorganic perovskite ( MC_ino )
# Geometry class:                   Bulk crystalline materials ( GC_cry )
# Organic cation chemical formula:  NH2NH3
# Number of atom types:             4
# Total number of atoms:            11
# Atom types:                        H N  Sn Br
# Number of each atom:               5 2  1 3
# Bandgap, HSE06 (eV):              1.909
# Bandgap, GGA (eV):                1.34
# Kpoint for VBM:                   0.5, 0.5, 0.5
# Kpoint for CBM:                   0.5, 0.5, 0.5
# Dielectric constant, electronic:  4.8323
# Dielectric constant, ionic:       14.8135
# Dielectric constant, total:       19.6458
# Refractive index:                 2.1982
# Atomization energy (eV/atom):     -3.9333
# Relative energy1 (eV/atom):       0.364
# Relative energy2 (eV/atom):       0.6469
# Volume of the unit cell (A^3):    208.78
# Density (g/cm^3):                 3.1041
# Tool:                             VASP
# Pseudopotential:                  PAW
# Note:                             ENCUT=400eV, k-spacing_relax=0.20/Angstrom, k-spacing_bandgap=0.15/Angstrom
# Created by:                       C.Kim, T.D.Huan, S.Krishnan, R. Ramprasad