data_1
_audit_creation_method   'Generated by vasp2cif'
_cell_length_a    4.15556153238
_cell_length_b    6.15463593422
_cell_length_c    7.87368368812
_cell_angle_alpha    90.8460887889
_cell_angle_beta    106.803546523
_cell_angle_gamma    89.4041667221

_symmetry_space_group_name_H-M    'P 1'
loop_
_atom_site_label
_atom_site_type_symbol
_atom_site_fract_x
_atom_site_fract_y
_atom_site_fract_z
_atom_site_occupancy
Br1   Br   0.623782804262773   0.027290420513499   0.454649195271692   1.0
Br2   Br   0.306826213452427   0.962982506773127   0.871952242257678   1.0
Br3   Br   0.912733619019974   0.464136073755067   0.115020514733229   1.0
H4   H   0.234296677203545   0.484285249992985   0.465601925675051   1.0
H5   H   0.321658253758195   0.706277187558094   0.591728461235847   1.0
H6   H   0.886586479754910   0.489898381556173   0.655514305214045   1.0
H7   H   0.185224553894350   0.293891518605207   0.722648056575884   1.0
H8   H   0.231421092178199   0.534243838378419   0.827838048532653   1.0
Sn9   Sn   0.957524150265458   0.998963413649756   0.163072882314866   1.0
N10   N   0.348145142951180   0.540157826039637   0.592444145202367   1.0
N11   N   0.144961013258960   0.460113583178037   0.704370222986677   1.0




# HOIP entry ID:                    0745
# Khazana ID:                       2595
# Organic cation source:            B.Saparov et al., Chem. Rev. 116, 4558 (2016)
# Label:                            Hydrazinium Tin Bromide
# Material class:                   Hybrid organic-inorganic perovskite ( MC_ino )
# Geometry class:                   Bulk crystalline materials ( GC_cry )
# Organic cation chemical formula:  NH2NH3
# Number of atom types:             4
# Total number of atoms:            11
# Atom types:                        H N  Sn Br
# Number of each atom:               5 2  1 3
# Bandgap, HSE06 (eV):              2.8141
# Bandgap, GGA (eV):                2.064
# Kpoint for VBM:                   0.0556, 0.5, 0.5
# Kpoint for CBM:                   0.5, 0.5, 0.5
# Dielectric constant, electronic:  4.4319
# Dielectric constant, ionic:       17.2363
# Dielectric constant, total:       21.6682
# Refractive index:                 2.1052
# Atomization energy (eV/atom):     -3.9534
# Relative energy1 (eV/atom):       0.3438
# Relative energy2 (eV/atom):       0.6267
# Volume of the unit cell (A^3):    192.75
# Density (g/cm^3):                 3.3623
# Tool:                             VASP
# Pseudopotential:                  PAW
# Note:                             ENCUT=400eV, k-spacing_relax=0.20/Angstrom, k-spacing_bandgap=0.15/Angstrom
# Created by:                       C.Kim, T.D.Huan, S.Krishnan, R. Ramprasad