data_1
_audit_creation_method   'Generated by vasp2cif'
_cell_length_a    8.20315765765
_cell_length_b    5.8642743777
_cell_length_c    5.94138955216
_cell_angle_alpha    94.3357887594
_cell_angle_beta    47.0671672395
_cell_angle_gamma    97.8245591897

_symmetry_space_group_name_H-M    'P 1'
loop_
_atom_site_label
_atom_site_type_symbol
_atom_site_fract_x
_atom_site_fract_y
_atom_site_fract_z
_atom_site_occupancy
Br1   Br   0.555209966044920   0.971484733148088   0.518040488087394   1.0
Br2   Br   0.045112958319088   0.972914169564881   0.491315331103685   1.0
Br3   Br   0.988229752030499   0.506083678357825   0.010264291916947   1.0
H4   H   0.518391738764720   0.662129920742515   0.165137353301461   1.0
H5   H   0.438587481453325   0.650199517227911   0.974129416093241   1.0
H6   H   0.754316173818573   0.392993734218479   0.873708786774131   1.0
H7   H   0.645446030082432   0.319267821331856   0.715552242290528   1.0
H8   H   0.806146593879681   0.574674631176883   0.622905280802598   1.0
Sn9   Sn   0.077917623729597   0.005747359507410   0.948377403256046   1.0
N10   N   0.476233830938490   0.550678004999519   0.065434497639103   1.0
N11   N   0.684887850938594   0.454976429724745   0.799454908734937   1.0




# HOIP entry ID:                    0746
# Khazana ID:                       2596
# Organic cation source:            B.Saparov et al., Chem. Rev. 116, 4558 (2016)
# Label:                            Hydrazinium Tin Bromide
# Material class:                   Hybrid organic-inorganic perovskite ( MC_ino )
# Geometry class:                   Bulk crystalline materials ( GC_cry )
# Organic cation chemical formula:  NH2NH3
# Number of atom types:             4
# Total number of atoms:            11
# Atom types:                        H N  Sn Br
# Number of each atom:               5 2  1 3
# Bandgap, HSE06 (eV):              2.1782
# Bandgap, GGA (eV):                1.6393
# Kpoint for VBM:                   0.1, 0.5, 0.5
# Kpoint for CBM:                   -0.1, -0.3571, 0.4
# Dielectric constant, electronic:  4.9598
# Dielectric constant, ionic:       17.7996
# Dielectric constant, total:       22.7594
# Refractive index:                 2.2271
# Atomization energy (eV/atom):     -3.9344
# Relative energy1 (eV/atom):       0.3629
# Relative energy2 (eV/atom):       0.6458
# Volume of the unit cell (A^3):    207.25
# Density (g/cm^3):                 3.1271
# Tool:                             VASP
# Pseudopotential:                  PAW
# Note:                             ENCUT=400eV, k-spacing_relax=0.20/Angstrom, k-spacing_bandgap=0.15/Angstrom
# Created by:                       C.Kim, T.D.Huan, S.Krishnan, R. Ramprasad