data_1
_audit_creation_method   'Generated by vasp2cif'
_cell_length_a    4.09662021192
_cell_length_b    6.41018860218
_cell_length_c    8.10665570773
_cell_angle_alpha    82.3956434022
_cell_angle_beta    106.746711622
_cell_angle_gamma    113.420108176

_symmetry_space_group_name_H-M    'P 1'
loop_
_atom_site_label
_atom_site_type_symbol
_atom_site_fract_x
_atom_site_fract_y
_atom_site_fract_z
_atom_site_occupancy
Br1   Br   0.209823302004999   0.975842216937487   0.561555148009212   1.0
Br2   Br   0.546011964039238   0.992601804296790   0.141219000496307   1.0
Br3   Br   0.635634815707391   0.532532955275947   0.871188652491782   1.0
H4   H   0.307164409966901   0.457312596128290   0.513231805078384   1.0
H5   H   0.356807411735133   0.693291138993608   0.394673151268819   1.0
H6   H   0.650323277101982   0.466437095117691   0.324190715808228   1.0
H7   H   0.217471239099105   0.267598547952026   0.259763442954828   1.0
H8   H   0.332809568852248   0.523853443382492   0.160264932969604   1.0
Sn9   Sn   0.890428610690094   0.011219760905320   0.843340566231433   1.0
N10   N   0.221675461045408   0.519740617322093   0.391974028590582   1.0
N11   N   0.370459939757431   0.439609823688208   0.278058556100760   1.0




# HOIP entry ID:                    0747
# Khazana ID:                       2597
# Organic cation source:            B.Saparov et al., Chem. Rev. 116, 4558 (2016)
# Label:                            Hydrazinium Tin Bromide
# Material class:                   Hybrid organic-inorganic perovskite ( MC_ino )
# Geometry class:                   Bulk crystalline materials ( GC_cry )
# Organic cation chemical formula:  NH2NH3
# Number of atom types:             4
# Total number of atoms:            11
# Atom types:                        H N  Sn Br
# Number of each atom:               5 2  1 3
# Bandgap, HSE06 (eV):              3.2003
# Bandgap, GGA (eV):                2.4263
# Kpoint for VBM:                   0, 0.5, 0.5
# Kpoint for CBM:                   0, 0.5, 0
# Dielectric constant, electronic:  4.3837
# Dielectric constant, ionic:       10.793
# Dielectric constant, total:       15.1767
# Refractive index:                 2.0937
# Atomization energy (eV/atom):     -3.9541
# Relative energy1 (eV/atom):       0.3431
# Relative energy2 (eV/atom):       0.626
# Volume of the unit cell (A^3):    187.02
# Density (g/cm^3):                 3.4653
# Tool:                             VASP
# Pseudopotential:                  PAW
# Note:                             ENCUT=400eV, k-spacing_relax=0.20/Angstrom, k-spacing_bandgap=0.15/Angstrom
# Created by:                       C.Kim, T.D.Huan, S.Krishnan, R. Ramprasad