data_1
_audit_creation_method   'Generated by vasp2cif'
_cell_length_a    7.60319737539
_cell_length_b    6.23181433733
_cell_length_c    4.31667754437
_cell_angle_alpha    101.380824777
_cell_angle_beta    76.3400206338
_cell_angle_gamma    97.3151324586

_symmetry_space_group_name_H-M    'P 1'
loop_
_atom_site_label
_atom_site_type_symbol
_atom_site_fract_x
_atom_site_fract_y
_atom_site_fract_z
_atom_site_occupancy
Br1   Br   0.440901977644124   0.110568445307685   0.332778768387413   1.0
Br2   Br   0.858983592147659   0.938269833593338   0.529402981293522   1.0
Br3   Br   0.080487399733414   0.432956188975261   0.099924021077406   1.0
H4   H   0.484605385596467   0.502689538855257   0.139974243570919   1.0
H5   H   0.615848803704957   0.731738393716853   0.080317992544757   1.0
H6   H   0.795149147238959   0.419459498923970   0.924062157494276   1.0
H7   H   0.656330795414235   0.311264266709308   0.668063596120014   1.0
H8   H   0.790230960423997   0.542906003637903   0.616285298310011   1.0
Sn9   Sn   0.154709503745551   0.990195619117216   0.921085885441627   1.0
N10   N   0.559096249800838   0.588918100515123   0.966048458231057   1.0
N11   N   0.709976184549781   0.456174110648135   0.788036597529029   1.0




# HOIP entry ID:                    0748
# Khazana ID:                       2598
# Organic cation source:            B.Saparov et al., Chem. Rev. 116, 4558 (2016)
# Label:                            Hydrazinium Tin Bromide
# Material class:                   Hybrid organic-inorganic perovskite ( MC_ino )
# Geometry class:                   Bulk crystalline materials ( GC_cry )
# Organic cation chemical formula:  NH2NH3
# Number of atom types:             4
# Total number of atoms:            11
# Atom types:                        H N  Sn Br
# Number of each atom:               5 2  1 3
# Bandgap, HSE06 (eV):              3.6621
# Bandgap, GGA (eV):                2.6767
# Kpoint for VBM:                   0.2105, 0.5, 0.2105
# Kpoint for CBM:                   0.3684, 0.3684, 0
# Dielectric constant, electronic:  4.1175
# Dielectric constant, ionic:       13.0151
# Dielectric constant, total:       17.1326
# Refractive index:                 2.0292
# Atomization energy (eV/atom):     -3.9407
# Relative energy1 (eV/atom):       0.3565
# Relative energy2 (eV/atom):       0.6395
# Volume of the unit cell (A^3):    194.14
# Density (g/cm^3):                 3.3382
# Tool:                             VASP
# Pseudopotential:                  PAW
# Note:                             ENCUT=400eV, k-spacing_relax=0.20/Angstrom, k-spacing_bandgap=0.15/Angstrom
# Created by:                       C.Kim, T.D.Huan, S.Krishnan, R. Ramprasad