data_1
_audit_creation_method   'Generated by vasp2cif'
_cell_length_a    7.37087625465
_cell_length_b    6.0877686603
_cell_length_c    4.51195429699
_cell_angle_alpha    88.6269313735
_cell_angle_beta    72.9622814849
_cell_angle_gamma    92.5187889329

_symmetry_space_group_name_H-M    'P 1'
loop_
_atom_site_label
_atom_site_type_symbol
_atom_site_fract_x
_atom_site_fract_y
_atom_site_fract_z
_atom_site_occupancy
Br1   Br   0.521367804573359   0.093578518248719   0.666315702588363   1.0
Br2   Br   0.088290024169616   0.922188318780421   0.408548946121257   1.0
Br3   Br   0.936159208231004   0.413706087193844   0.966797399285788   1.0
H4   H   0.529500036155241   0.495905072298292   0.904512608538838   1.0
H5   H   0.388513973609790   0.707005913881119   0.991186122350015   1.0
H6   H   0.216150695476898   0.362760394936011   0.164511299468870   1.0
H7   H   0.364225109983707   0.321194231603691   0.384254430624665   1.0
H8   H   0.215717784651716   0.529503461775867   0.450786862558047   1.0
Sn9   Sn   0.807681315423203   0.964060717469430   0.066011823030102   1.0
N10   N   0.454890883105229   0.589253881667190   0.081721006841477   1.0
N11   N   0.303363164620215   0.439573402145434   0.279603798592582   1.0




# HOIP entry ID:                    0749
# Khazana ID:                       2599
# Organic cation source:            B.Saparov et al., Chem. Rev. 116, 4558 (2016)
# Label:                            Hydrazinium Tin Bromide
# Material class:                   Hybrid organic-inorganic perovskite ( MC_ino )
# Geometry class:                   Bulk crystalline materials ( GC_cry )
# Organic cation chemical formula:  NH2NH3
# Number of atom types:             4
# Total number of atoms:            11
# Atom types:                        H N  Sn Br
# Number of each atom:               5 2  1 3
# Bandgap, HSE06 (eV):              3.5544
# Bandgap, GGA (eV):                2.6381
# Kpoint for VBM:                   0.5, 0.5, 0
# Kpoint for CBM:                   -0.4, 0.25, 0
# Dielectric constant, electronic:  4.1527
# Dielectric constant, ionic:       10.1528
# Dielectric constant, total:       14.3055
# Refractive index:                 2.0378
# Atomization energy (eV/atom):     -3.9442
# Relative energy1 (eV/atom):       0.3531
# Relative energy2 (eV/atom):       0.636
# Volume of the unit cell (A^3):    193.24
# Density (g/cm^3):                 3.3538
# Tool:                             VASP
# Pseudopotential:                  PAW
# Note:                             ENCUT=400eV, k-spacing_relax=0.20/Angstrom, k-spacing_bandgap=0.15/Angstrom
# Created by:                       C.Kim, T.D.Huan, S.Krishnan, R. Ramprasad