data_1
_audit_creation_method   'Generated by vasp2cif'
_cell_length_a    7.95957358272
_cell_length_b    4.1385131817
_cell_length_c    6.07029337294
_cell_angle_alpha    91.0404800811
_cell_angle_beta    90.0644077331
_cell_angle_gamma    73.807309733

_symmetry_space_group_name_H-M    'P 1'
loop_
_atom_site_label
_atom_site_type_symbol
_atom_site_fract_x
_atom_site_fract_y
_atom_site_fract_z
_atom_site_occupancy
Br1   Br   0.438492950628921   0.076060567069172   0.020173063308337   1.0
Br2   Br   0.101553241075151   0.810126235127326   0.470105034200814   1.0
Br3   Br   0.856903244870300   0.383431615883881   0.973119634492896   1.0
H4   H   0.556762156895074   0.470142576728764   0.706004372247008   1.0
H5   H   0.452607898523740   0.547636485333951   0.468688368169889   1.0
H6   H   0.802444070532198   0.561331688394582   0.567591658386760   1.0
H7   H   0.725430754937673   0.584198499565600   0.309504460838806   1.0
H8   H   0.638223065378598   0.898780485550039   0.495805239327680   1.0
Sn9   Sn   0.147971964889816   0.737514404196209   0.999499145473126   1.0
N10   N   0.572162556554422   0.436399361203099   0.538444998105748   1.0
N11   N   0.689978095714081   0.638668080947339   0.474014025449016   1.0




# HOIP entry ID:                    0750
# Khazana ID:                       2600
# Organic cation source:            B.Saparov et al., Chem. Rev. 116, 4558 (2016)
# Label:                            Hydrazinium Tin Bromide
# Material class:                   Hybrid organic-inorganic perovskite ( MC_ino )
# Geometry class:                   Bulk crystalline materials ( GC_cry )
# Organic cation chemical formula:  NH2NH3
# Number of atom types:             4
# Total number of atoms:            11
# Atom types:                        H N  Sn Br
# Number of each atom:               5 2  1 3
# Bandgap, HSE06 (eV):              2.7939
# Bandgap, GGA (eV):                2.1014
# Kpoint for VBM:                   0.5, 0, 0.5
# Kpoint for CBM:                   0.1, 0, 0.5
# Dielectric constant, electronic:  4.4703
# Dielectric constant, ionic:       11.6624
# Dielectric constant, total:       16.1327
# Refractive index:                 2.1143
# Atomization energy (eV/atom):     -3.9543
# Relative energy1 (eV/atom):       0.3429
# Relative energy2 (eV/atom):       0.6258
# Volume of the unit cell (A^3):    191.99
# Density (g/cm^3):                 3.3756
# Tool:                             VASP
# Pseudopotential:                  PAW
# Note:                             ENCUT=400eV, k-spacing_relax=0.20/Angstrom, k-spacing_bandgap=0.15/Angstrom
# Created by:                       C.Kim, T.D.Huan, S.Krishnan, R. Ramprasad