data_1
_audit_creation_method   'Generated by vasp2cif'
_cell_length_a    7.61419070193
_cell_length_b    4.45870576622
_cell_length_c    6.06163630978
_cell_angle_alpha    92.4295987215
_cell_angle_beta    104.351392991
_cell_angle_gamma    75.5314921312

_symmetry_space_group_name_H-M    'P 1'
loop_
_atom_site_label
_atom_site_type_symbol
_atom_site_fract_x
_atom_site_fract_y
_atom_site_fract_z
_atom_site_occupancy
Br1   Br   0.469859935177510   0.185531716447983   0.974577084008224   1.0
Br2   Br   0.062400668457151   0.842538913635899   0.554876920516151   1.0
Br3   Br   0.904499492277210   0.439907451076927   0.012930517693377   1.0
H4   H   0.456878792544131   0.541888375451357   0.557334708511902   1.0
H5   H   0.576928579703328   0.795388944394851   0.654711365794675   1.0
H6   H   0.778830016453661   0.319538251442552   0.594384548134080   1.0
H7   H   0.656413988332886   0.348216890229125   0.314819598441424   1.0
H8   H   0.785708631449239   0.598457063539293   0.426487440548108   1.0
Sn9   Sn   0.187360423966752   0.840945417508507   0.037184967639192   1.0
N10   N   0.530822691954135   0.680855879499809   0.509252431417700   1.0
N11   N   0.698666779683990   0.470071096773644   0.460450417295178   1.0




# HOIP entry ID:                    0751
# Khazana ID:                       2601
# Organic cation source:            B.Saparov et al., Chem. Rev. 116, 4558 (2016)
# Label:                            Hydrazinium Tin Bromide
# Material class:                   Hybrid organic-inorganic perovskite ( MC_ino )
# Geometry class:                   Bulk crystalline materials ( GC_cry )
# Organic cation chemical formula:  NH2NH3
# Number of atom types:             4
# Total number of atoms:            11
# Atom types:                        H N  Sn Br
# Number of each atom:               5 2  1 3
# Bandgap, HSE06 (eV):              3.4904
# Bandgap, GGA (eV):                2.6332
# Kpoint for VBM:                   0.5, 0.0556, 0.5
# Kpoint for CBM:                   0.4, 0, 0.1429
# Dielectric constant, electronic:  4.2049
# Dielectric constant, ionic:       12.9782
# Dielectric constant, total:       17.1831
# Refractive index:                 2.0506
# Atomization energy (eV/atom):     -3.9409
# Relative energy1 (eV/atom):       0.3563
# Relative energy2 (eV/atom):       0.6392
# Volume of the unit cell (A^3):    193
# Density (g/cm^3):                 3.3579
# Tool:                             VASP
# Pseudopotential:                  PAW
# Note:                             ENCUT=400eV, k-spacing_relax=0.20/Angstrom, k-spacing_bandgap=0.15/Angstrom
# Created by:                       C.Kim, T.D.Huan, S.Krishnan, R. Ramprasad