data_1
_audit_creation_method   'Generated by vasp2cif'
_cell_length_a    7.74671521933
_cell_length_b    5.8941056952
_cell_length_c    4.54347252651
_cell_angle_alpha    90.3484519289
_cell_angle_beta    106.427974337
_cell_angle_gamma    74.931277373

_symmetry_space_group_name_H-M    'P 1'
loop_
_atom_site_label
_atom_site_type_symbol
_atom_site_fract_x
_atom_site_fract_y
_atom_site_fract_z
_atom_site_occupancy
Br1   Br   0.515636894616065   0.989325192526508   0.146233218519932   1.0
Br2   Br   0.086096238803222   0.998738498201966   0.428158580819648   1.0
Br3   Br   0.938845765280526   0.539665079419748   0.854668186359227   1.0
H4   H   0.494386851202101   0.590170755679985   0.461184158721466   1.0
H5   H   0.463002593594581   0.616961971578988   0.801607356158151   1.0
H6   H   0.189943503429241   0.571015813570952   0.433716749462597   1.0
H7   H   0.322287336072336   0.307088606116075   0.362992519534494   1.0
H8   H   0.284232895717999   0.342725427878371   0.704173187405516   1.0
Sn9   Sn   0.810745623700143   0.041516647855161   0.805626877572905   1.0
N10   N   0.482023145414843   0.496369996386100   0.640935725370248   1.0
N11   N   0.306039152168935   0.428822010786106   0.526053440075884   1.0




# HOIP entry ID:                    0752
# Khazana ID:                       2602
# Organic cation source:            B.Saparov et al., Chem. Rev. 116, 4558 (2016)
# Label:                            Hydrazinium Tin Bromide
# Material class:                   Hybrid organic-inorganic perovskite ( MC_ino )
# Geometry class:                   Bulk crystalline materials ( GC_cry )
# Organic cation chemical formula:  NH2NH3
# Number of atom types:             4
# Total number of atoms:            11
# Atom types:                        H N  Sn Br
# Number of each atom:               5 2  1 3
# Bandgap, HSE06 (eV):              3.3841
# Bandgap, GGA (eV):                2.5045
# Kpoint for VBM:                   0.5, 0.5, 0
# Kpoint for CBM:                   0.4, 0, 0
# Dielectric constant, electronic:  4.2981
# Dielectric constant, ionic:       14.2333
# Dielectric constant, total:       18.5315
# Refractive index:                 2.0732
# Atomization energy (eV/atom):     -3.941
# Relative energy1 (eV/atom):       0.3562
# Relative energy2 (eV/atom):       0.6392
# Volume of the unit cell (A^3):    191.63
# Density (g/cm^3):                 3.3819
# Tool:                             VASP
# Pseudopotential:                  PAW
# Note:                             ENCUT=400eV, k-spacing_relax=0.20/Angstrom, k-spacing_bandgap=0.15/Angstrom
# Created by:                       C.Kim, T.D.Huan, S.Krishnan, R. Ramprasad