data_1
_audit_creation_method   'Generated by vasp2cif'
_cell_length_a    8.0725020594
_cell_length_b    4.07470448394
_cell_length_c    5.9457145877
_cell_angle_alpha    89.7041681306
_cell_angle_beta    89.830628046
_cell_angle_gamma    77.1147416424

_symmetry_space_group_name_H-M    'P 1'
loop_
_atom_site_label
_atom_site_type_symbol
_atom_site_fract_x
_atom_site_fract_y
_atom_site_fract_z
_atom_site_occupancy
Br1   Br   0.219921721130355   0.545163022305680   0.009394381643482   1.0
Br2   Br   0.955866875794030   0.234247942162710   0.511421022020514   1.0
Br3   Br   0.638940974967859   0.814030801428494   0.013685150354405   1.0
H4   H   0.566884962626517   0.458831818798458   0.659916306118966   1.0
H5   H   0.579074634467027   0.458294893529775   0.383179770014181   1.0
H6   H   0.289565229358345   0.766613720852853   0.645021253524327   1.0
H7   H   0.418553532367348   0.982236378669029   0.509700531740016   1.0
H8   H   0.298806817295045   0.762261427038325   0.362036974418267   1.0
Sn9   Sn   0.927439104057804   0.179509361510135   0.011637667282862   1.0
N10   N   0.498853407571012   0.445218552351250   0.515777931420899   1.0
N11   N   0.369232740364680   0.765282081353298   0.507599011462077   1.0




# HOIP entry ID:                    0753
# Khazana ID:                       2603
# Organic cation source:            B.Saparov et al., Chem. Rev. 116, 4558 (2016)
# Label:                            Hydrazinium Tin Bromide
# Material class:                   Hybrid organic-inorganic perovskite ( MC_ino )
# Geometry class:                   Bulk crystalline materials ( GC_cry )
# Organic cation chemical formula:  NH2NH3
# Number of atom types:             4
# Total number of atoms:            11
# Atom types:                        H N  Sn Br
# Number of each atom:               5 2  1 3
# Bandgap, HSE06 (eV):              2.5736
# Bandgap, GGA (eV):                1.9359
# Kpoint for VBM:                   0.5, 0, 0.5
# Kpoint for CBM:                   0.1, 0, 0.5
# Dielectric constant, electronic:  4.6636
# Dielectric constant, ionic:       55.0096
# Dielectric constant, total:       59.6732
# Refractive index:                 2.1595
# Atomization energy (eV/atom):     -3.9547
# Relative energy1 (eV/atom):       0.3426
# Relative energy2 (eV/atom):       0.6255
# Volume of the unit cell (A^3):    190.65
# Density (g/cm^3):                 3.3993
# Tool:                             VASP
# Pseudopotential:                  PAW
# Note:                             ENCUT=400eV, k-spacing_relax=0.20/Angstrom, k-spacing_bandgap=0.15/Angstrom
# Created by:                       C.Kim, T.D.Huan, S.Krishnan, R. Ramprasad