data_1
_audit_creation_method   'Generated by vasp2cif'
_cell_length_a    6.34501097357
_cell_length_b    4.15365531508
_cell_length_c    7.90205452759
_cell_angle_alpha    102.665088486
_cell_angle_beta    95.0560642522
_cell_angle_gamma    67.3083885589

_symmetry_space_group_name_H-M    'P 1'
loop_
_atom_site_label
_atom_site_type_symbol
_atom_site_fract_x
_atom_site_fract_y
_atom_site_fract_z
_atom_site_occupancy
Br1   Br   0.984062700414910   0.506152026832552   0.749874360654296   1.0
Br2   Br   0.545809991234201   0.367470638493657   0.043285118448836   1.0
Br3   Br   0.007607515381508   0.734857329302301   0.325745283866468   1.0
H4   H   0.507872517403982   0.903214218155760   0.365246127733464   1.0
H5   H   0.280731051795612   0.101193080740877   0.493917486750711   1.0
H6   H   0.729931205180264   0.096019731233888   0.568997954288093   1.0
H7   H   0.497898906829214   0.460830274453187   0.549630232702000   1.0
H8   H   0.524083606923405   0.257808418493781   0.719595282421807   1.0
Sn9   Sn   0.030992148467441   0.102111016759665   0.037230066699358   1.0
N10   N   0.454029656590066   0.962122502320945   0.491295073646796   1.0
N11   N   0.555050699779414   0.215220763213424   0.587883012788204   1.0




# HOIP entry ID:                    0754
# Khazana ID:                       2604
# Organic cation source:            B.Saparov et al., Chem. Rev. 116, 4558 (2016)
# Label:                            Hydrazinium Tin Bromide
# Material class:                   Hybrid organic-inorganic perovskite ( MC_ino )
# Geometry class:                   Bulk crystalline materials ( GC_cry )
# Organic cation chemical formula:  NH2NH3
# Number of atom types:             4
# Total number of atoms:            11
# Atom types:                        H N  Sn Br
# Number of each atom:               5 2  1 3
# Bandgap, HSE06 (eV):              3.2931
# Bandgap, GGA (eV):                2.5153
# Kpoint for VBM:                   0.5, 0, 0.5
# Kpoint for CBM:                   0.5, 0, 0.1
# Dielectric constant, electronic:  4.3755
# Dielectric constant, ionic:       11.0813
# Dielectric constant, total:       15.4568
# Refractive index:                 2.0918
# Atomization energy (eV/atom):     -3.956
# Relative energy1 (eV/atom):       0.3412
# Relative energy2 (eV/atom):       0.6241
# Volume of the unit cell (A^3):    187.46
# Density (g/cm^3):                 3.4572
# Tool:                             VASP
# Pseudopotential:                  PAW
# Note:                             ENCUT=400eV, k-spacing_relax=0.20/Angstrom, k-spacing_bandgap=0.15/Angstrom
# Created by:                       C.Kim, T.D.Huan, S.Krishnan, R. Ramprasad