data_1
_audit_creation_method   'Generated by vasp2cif'
_cell_length_a    7.9207438201
_cell_length_b    4.15401526474
_cell_length_c    6.17577359201
_cell_angle_alpha    92.5098102273
_cell_angle_beta    95.3514871101
_cell_angle_gamma    71.6328306036

_symmetry_space_group_name_H-M    'P 1'
loop_
_atom_site_label
_atom_site_type_symbol
_atom_site_fract_x
_atom_site_fract_y
_atom_site_fract_z
_atom_site_occupancy
Br1   Br   0.721223854839051   0.207001899965397   0.974718951193365   1.0
Br2   Br   0.001928519046294   0.550885666372432   0.489826588993753   1.0
Br3   Br   0.305118404143169   0.860649518155041   0.040574884286018   1.0
H4   H   0.338287494729973   0.035391979462632   0.530138051474768   1.0
H5   H   0.502451068365714   0.954955311777298   0.725682094728925   1.0
H6   H   0.699264623586945   0.999758445513390   0.472657385491278   1.0
H7   H   0.526133653865297   0.104854028300909   0.283710797724713   1.0
H8   H   0.531936810135798   0.371953713747389   0.497617583349574   1.0
Sn9   Sn   0.013744511150942   0.529722425857422   0.009450071489654   1.0
N10   N   0.473096296930032   0.918264785709486   0.562805831084819   1.0
N11   N   0.562174763206853   0.117262225138626   0.448617760183051   1.0




# HOIP entry ID:                    0755
# Khazana ID:                       2605
# Organic cation source:            B.Saparov et al., Chem. Rev. 116, 4558 (2016)
# Label:                            Hydrazinium Tin Bromide
# Material class:                   Hybrid organic-inorganic perovskite ( MC_ino )
# Geometry class:                   Bulk crystalline materials ( GC_cry )
# Organic cation chemical formula:  NH2NH3
# Number of atom types:             4
# Total number of atoms:            11
# Atom types:                        H N  Sn Br
# Number of each atom:               5 2  1 3
# Bandgap, HSE06 (eV):              2.5946
# Bandgap, GGA (eV):                1.8752
# Kpoint for VBM:                   0.5, 0, 0.5
# Kpoint for CBM:                   0.5, 0.5, 0.5
# Dielectric constant, electronic:  4.5932
# Dielectric constant, ionic:       22.1211
# Dielectric constant, total:       26.7143
# Refractive index:                 2.1432
# Atomization energy (eV/atom):     -3.9542
# Relative energy1 (eV/atom):       0.3431
# Relative energy2 (eV/atom):       0.626
# Volume of the unit cell (A^3):    191.99
# Density (g/cm^3):                 3.3756
# Tool:                             VASP
# Pseudopotential:                  PAW
# Note:                             ENCUT=400eV, k-spacing_relax=0.20/Angstrom, k-spacing_bandgap=0.15/Angstrom
# Created by:                       C.Kim, T.D.Huan, S.Krishnan, R. Ramprasad