data_1
_audit_creation_method   'Generated by vasp2cif'
_cell_length_a    7.37927449942
_cell_length_b    6.33825170286
_cell_length_c    4.42658598924
_cell_angle_alpha    71.0222673482
_cell_angle_beta    106.832482555
_cell_angle_gamma    105.487420544

_symmetry_space_group_name_H-M    'P 1'
loop_
_atom_site_label
_atom_site_type_symbol
_atom_site_fract_x
_atom_site_fract_y
_atom_site_fract_z
_atom_site_occupancy
Sn1   Sn   0.854015765148542   0.983023240939040   0.723142980662418   1.0
Br2   Br   0.528619602864270   0.899719209019163   0.085600445409312   1.0
Br3   Br   0.148194481085627   0.091600341145053   0.300156866269681   1.0
Br4   Br   0.832617793837005   0.441473716117592   0.478411396430335   1.0
N5   N   0.431403141023099   0.444767705297436   0.758037780775257   1.0
H6   H   0.309953733400773   0.436700484019179   0.571609512730179   1.0
H7   H   0.419901213522407   0.293762428649992   0.940176984597115   1.0
H8   H   0.551474109920327   0.462043042976824   0.668452337466193   1.0
H9   H   0.445380159197987   0.580519831835740   0.850941695659421   1.0




# HOIP entry ID:                    0756
# Khazana ID:                       2606
# Organic cation source:            T.D.Huan et al., Phys. Rev. B 93,094105(2016)
# Label:                            Ammonium Tin Bromide
# Material class:                   Hybrid organic-inorganic perovskite ( MC_ino )
# Geometry class:                   Bulk crystalline materials ( GC_cry )
# Organic cation chemical formula:  NH4
# Number of atom types:             4
# Total number of atoms:            9
# Atom types:                        H N  Sn Br
# Number of each atom:               4 1  1 3
# Bandgap, HSE06 (eV):              3.6443
# Bandgap, GGA (eV):                2.6903
# Kpoint for VBM:                   0.5, 0.5, 0
# Kpoint for CBM:                   0.4474, 0.4474, 0
# Dielectric constant, electronic:  4.1325
# Dielectric constant, ionic:       21.2989
# Dielectric constant, total:       25.4314
# Refractive index:                 2.0329
# Atomization energy (eV/atom):     -3.7238
# Relative energy1 (eV/atom):       0.2892
# Relative energy2 (eV/atom):       0.635
# Volume of the unit cell (A^3):    183.95
# Density (g/cm^3):                 3.3876
# Tool:                             VASP
# Pseudopotential:                  PAW
# Note:                             ENCUT=400eV, k-spacing_relax=0.20/Angstrom, k-spacing_bandgap=0.15/Angstrom
# Created by:                       C.Kim, T.D.Huan, S.Krishnan, R. Ramprasad