data_1
_audit_creation_method   'Generated by vasp2cif'
_cell_length_a    5.96094749227
_cell_length_b    5.96505990191
_cell_length_c    5.97097809662
_cell_angle_alpha    82.6616432072
_cell_angle_beta    82.931517599
_cell_angle_gamma    83.0275498508

_symmetry_space_group_name_H-M    'P 1'
loop_
_atom_site_label
_atom_site_type_symbol
_atom_site_fract_x
_atom_site_fract_y
_atom_site_fract_z
_atom_site_occupancy
Sn1   Sn   0.979873024987803   0.979838267446290   0.036579956145737   1.0
Br2   Br   0.021673682304076   0.867838856496554   0.513565433202373   1.0
Br3   Br   0.456564676260832   0.023391750832069   0.924597444179390   1.0
Br4   Br   0.868852638882970   0.456043188068016   0.078650880916342   1.0
N5   N   0.531178042187747   0.532035128026926   0.584200558541419   1.0
H6   H   0.379229512301151   0.629383678564892   0.552196841832647   1.0
H7   H   0.497809781434725   0.382208666363042   0.685646865651918   1.0
H8   H   0.624208003009151   0.494736037743642   0.431971144204759   1.0
H9   H   0.624930638631497   0.622844426458606   0.667540875325400   1.0




# HOIP entry ID:                    0757
# Khazana ID:                       2607
# Organic cation source:            T.D.Huan et al., Phys. Rev. B 93,094105(2016)
# Label:                            Ammonium Tin Bromide
# Material class:                   Hybrid organic-inorganic perovskite ( MC_ino )
# Geometry class:                   Bulk crystalline materials ( GC_cry )
# Organic cation chemical formula:  NH4
# Number of atom types:             4
# Total number of atoms:            9
# Atom types:                        H N  Sn Br
# Number of each atom:               4 1  1 3
# Bandgap, HSE06 (eV):              2.3812
# Bandgap, GGA (eV):                1.7221
# Kpoint for VBM:                   0.5, 0.5, 0.5
# Kpoint for CBM:                   0.3947, 0.3947, 0.3947
# Dielectric constant, electronic:  4.2661
# Dielectric constant, ionic:       9.6144
# Dielectric constant, total:       13.8806
# Refractive index:                 2.0655
# Atomization energy (eV/atom):     -3.7171
# Relative energy1 (eV/atom):       0.2959
# Relative energy2 (eV/atom):       0.6417
# Volume of the unit cell (A^3):    207.77
# Density (g/cm^3):                 2.9992
# Tool:                             VASP
# Pseudopotential:                  PAW
# Note:                             ENCUT=400eV, k-spacing_relax=0.20/Angstrom, k-spacing_bandgap=0.15/Angstrom
# Created by:                       C.Kim, T.D.Huan, S.Krishnan, R. Ramprasad