data_1
_audit_creation_method   'Generated by vasp2cif'
_cell_length_a    4.43359688512
_cell_length_b    6.3266709862
_cell_length_c    7.36384307619
_cell_angle_alpha    74.8952310971
_cell_angle_beta    73.1433511555
_cell_angle_gamma    70.9637945806

_symmetry_space_group_name_H-M    'P 1'
loop_
_atom_site_label
_atom_site_type_symbol
_atom_site_fract_x
_atom_site_fract_y
_atom_site_fract_z
_atom_site_occupancy
Sn1   Sn   0.771718569454585   0.011407005551057   0.139165025135924   1.0
Br2   Br   0.127517598094364   0.933169076235401   0.463768469839835   1.0
Br3   Br   0.344725569171622   0.120397188994346   0.844827059234596   1.0
Br4   Br   0.523459954586166   0.470677090704797   0.162944177324363   1.0
N5   N   0.796278747311845   0.479493476354584   0.567715859740844   1.0
H6   H   0.609892726843071   0.473334193423170   0.689443105781926   1.0
H7   H   0.979515477334239   0.329059287247809   0.580448867957024   1.0
H8   H   0.707730368810786   0.493308200861215   0.447970320034727   1.0
H9   H   0.887610988393284   0.616574480627541   0.552037114950750   1.0




# HOIP entry ID:                    0758
# Khazana ID:                       2608
# Organic cation source:            T.D.Huan et al., Phys. Rev. B 93,094105(2016)
# Label:                            Ammonium Tin Bromide
# Material class:                   Hybrid organic-inorganic perovskite ( MC_ino )
# Geometry class:                   Bulk crystalline materials ( GC_cry )
# Organic cation chemical formula:  NH4
# Number of atom types:             4
# Total number of atoms:            9
# Atom types:                        H N  Sn Br
# Number of each atom:               4 1  1 3
# Bandgap, HSE06 (eV):              3.5885
# Bandgap, GGA (eV):                2.7111
# Kpoint for VBM:                   0.2778, -0.3571, 0.1667
# Kpoint for CBM:                   0, -0.2857, 0.4167
# Dielectric constant, electronic:  4.1506
# Dielectric constant, ionic:       20.1999
# Dielectric constant, total:       24.3505
# Refractive index:                 2.0373
# Atomization energy (eV/atom):     -3.7238
# Relative energy1 (eV/atom):       0.2892
# Relative energy2 (eV/atom):       0.635
# Volume of the unit cell (A^3):    183.7
# Density (g/cm^3):                 3.3922
# Tool:                             VASP
# Pseudopotential:                  PAW
# Note:                             ENCUT=400eV, k-spacing_relax=0.20/Angstrom, k-spacing_bandgap=0.15/Angstrom
# Created by:                       C.Kim, T.D.Huan, S.Krishnan, R. Ramprasad