data_1
_audit_creation_method   'Generated by vasp2cif'
_cell_length_a    6.24192580431
_cell_length_b    6.27787972425
_cell_length_c    6.45512336188
_cell_angle_alpha    96.4762089465
_cell_angle_beta    87.537079471
_cell_angle_gamma    83.2422439455

_symmetry_space_group_name_H-M    'P 1'
loop_
_atom_site_label
_atom_site_type_symbol
_atom_site_fract_x
_atom_site_fract_y
_atom_site_fract_z
_atom_site_occupancy
C1   C   0.337519556619135   0.336788554760766   0.474861256224266   1.0
C2   C   0.553864387691952   0.602772363825117   0.326630654597459   1.0
C3   C   0.651159184941093   0.461612303185419   0.659721579936644   1.0
H4   H   0.198633666324810   0.393939608114351   0.390599750986617   1.0
H5   H   0.418776016460306   0.645143097060192   0.232326834141467   1.0
H6   H   0.581731298032487   0.425413308195545   0.807480564428886   1.0
H7   H   0.744653384667544   0.596525108952349   0.683499997121615   1.0
H8   H   0.636497364551907   0.742660372328380   0.372747173442129   1.0
H9   H   0.366128303179657   0.648918408047287   0.602748128455346   1.0
H10   H   0.750478778964748   0.318988286572235   0.579567240419706   1.0
H11   H   0.439588814698176   0.207054837171931   0.378070456973703   1.0
H12   H   0.667339856809711   0.473669068652562   0.241949571997473   1.0
H13   H   0.286324863407138   0.284681779869665   0.621825307498199   1.0
Br14   Br   0.529594079500626   0.996849081546571   0.957448784238217   1.0
Br15   Br   0.071239635456045   0.532688261793432   0.992165253150610   1.0
Br16   Br   0.028632973666078   0.918578740389869   0.540455990554584   1.0
N17   N   0.469015654241929   0.522371804006092   0.522716401738968   1.0
Sn18   Sn   0.986282180786617   0.978815015528234   0.981185054094247   1.0




# HOIP entry ID:                    0760
# Khazana ID:                       2610
# Organic cation source:            A. Mancini et al., J. Solid State Chem. 240, 55 (2016)
# Label:                            Trimethylammonium Tin Bromide
# Material class:                   Hybrid organic-inorganic perovskite ( MC_ino )
# Geometry class:                   Bulk crystalline materials ( GC_cry )
# Organic cation chemical formula:  (CH3)3NH
# Number of atom types:             5
# Total number of atoms:            18
# Atom types:                       C H N  Sn Br
# Number of each atom:              3 10 1  1 3
# Bandgap, HSE06 (eV):              2.9591
# Bandgap, GGA (eV):                2.1783
# Kpoint for VBM:                   0.5, 0.5, 0.5
# Kpoint for CBM:                   0.4737, 0.5, 0.4737
# Dielectric constant, electronic:  3.8256
# Dielectric constant, ionic:       4.497
# Dielectric constant, total:       8.3226
# Refractive index:                 1.9559
# Atomization energy (eV/atom):     -4.3868
# Relative energy1 (eV/atom):       -0.0496
# Relative energy2 (eV/atom):       0.1233
# Volume of the unit cell (A^3):    249.18
# Density (g/cm^3):                 2.7812
# Tool:                             VASP
# Pseudopotential:                  PAW
# Note:                             ENCUT=400eV, k-spacing_relax=0.20/Angstrom, k-spacing_bandgap=0.15/Angstrom
# Created by:                       C.Kim, T.D.Huan, S.Krishnan, R. Ramprasad