data_1
_audit_creation_method   'Generated by vasp2cif'
_cell_length_a    6.48661662219
_cell_length_b    6.21475568821
_cell_length_c    6.30610842492
_cell_angle_alpha    94.48364364
_cell_angle_beta    92.1823747266
_cell_angle_gamma    99.7533255159

_symmetry_space_group_name_H-M    'P 1'
loop_
_atom_site_label
_atom_site_type_symbol
_atom_site_fract_x
_atom_site_fract_y
_atom_site_fract_z
_atom_site_occupancy
C1   C   0.475143082622765   0.355258686767657   0.678782266564096   1.0
C2   C   0.337979036719329   0.614041651884179   0.445111625957981   1.0
C3   C   0.634655975031047   0.429405199917530   0.334324688219971   1.0
H4   H   0.409480498855217   0.432307138974141   0.815401655475780   1.0
H5   H   0.268099039202165   0.681727577004106   0.583306812344999   1.0
H6   H   0.779579624538700   0.384035738434630   0.394702028704973   1.0
H7   H   0.666125309278342   0.551839446577976   0.220551905208043   1.0
H8   H   0.388972500282775   0.739419829329973   0.337802100329310   1.0
H9   H   0.632491820175793   0.654067400496093   0.595355257208036   1.0
H10   H   0.529905308426638   0.283997622590299   0.261986873552314   1.0
H11   H   0.360622909669565   0.221065121097243   0.600569406853731   1.0
H12   H   0.227515720804243   0.479704312261187   0.361261988592709   1.0
H13   H   0.618264866952601   0.299022783059555   0.725974616570512   1.0
Br14   Br   0.960581608509921   0.981997859074999   0.458317662403268   1.0
Br15   Br   0.002272012250079   0.531264591288683   0.927751196429265   1.0
Br16   Br   0.564698143770706   0.914262044470275   0.959587859701364   1.0
N17   N   0.528273991848512   0.523904056346334   0.519813210399324   1.0
Sn18   Sn   0.999458551061638   0.981248940425164   0.007658845484210   1.0




# HOIP entry ID:                    0761
# Khazana ID:                       2611
# Organic cation source:            A. Mancini et al., J. Solid State Chem. 240, 55 (2016)
# Label:                            Trimethylammonium Tin Bromide
# Material class:                   Hybrid organic-inorganic perovskite ( MC_ino )
# Geometry class:                   Bulk crystalline materials ( GC_cry )
# Organic cation chemical formula:  (CH3)3NH
# Number of atom types:             5
# Total number of atoms:            18
# Atom types:                       C H N  Sn Br
# Number of each atom:              3 10 1  1 3
# Bandgap, HSE06 (eV):              3.072
# Bandgap, GGA (eV):                2.3262
# Kpoint for VBM:                   0.5, 0.5, 0.5
# Kpoint for CBM:                   0.5, 0.3333, 0.5
# Dielectric constant, electronic:  3.7746
# Dielectric constant, ionic:       4.3664
# Dielectric constant, total:       8.141
# Refractive index:                 1.9428
# Atomization energy (eV/atom):     -4.3864
# Relative energy1 (eV/atom):       -0.0493
# Relative energy2 (eV/atom):       0.1236
# Volume of the unit cell (A^3):    249.43
# Density (g/cm^3):                 2.7784
# Tool:                             VASP
# Pseudopotential:                  PAW
# Note:                             ENCUT=400eV, k-spacing_relax=0.20/Angstrom, k-spacing_bandgap=0.15/Angstrom
# Created by:                       C.Kim, T.D.Huan, S.Krishnan, R. Ramprasad