data_1
_audit_creation_method   'Generated by vasp2cif'
_cell_length_a    6.28733039555
_cell_length_b    6.42673954913
_cell_length_c    6.48495943347
_cell_angle_alpha    77.6794683697
_cell_angle_beta    86.4412866858
_cell_angle_gamma    93.224826551

_symmetry_space_group_name_H-M    'P 1'
loop_
_atom_site_label
_atom_site_type_symbol
_atom_site_fract_x
_atom_site_fract_y
_atom_site_fract_z
_atom_site_occupancy
C1   C   0.737413966507170   0.496056127426065   0.568705606128852   1.0
C2   C   0.409450011610481   0.687888419087962   0.608975505812261   1.0
C3   C   0.439773242528659   0.463189204888749   0.338617429237232   1.0
H4   H   0.815747017820399   0.604087558132761   0.652885175960293   1.0
H5   H   0.341271138360980   0.550579959213110   0.728736684317610   1.0
H6   H   0.367962120560172   0.324265656061755   0.454369591922585   1.0
H7   H   0.553429101081690   0.413776751900223   0.228104308547749   1.0
H8   H   0.501136925519795   0.797017200519569   0.683223632870181   1.0
H9   H   0.624979717863724   0.739005845177324   0.345450540073138   1.0
H10   H   0.316887357104143   0.551375317056653   0.254401137971861   1.0
H11   H   0.665755869049164   0.353435225061212   0.678813085142295   1.0
H12   H   0.284201234393585   0.769436088180925   0.522207210458120   1.0
H13   H   0.847902592050779   0.453814998827617   0.451306228436636   1.0
Br14   Br   0.477987224495927   0.047740401873568   0.017302250283819   1.0
Br15   Br   0.967916943823077   0.646150154364776   0.020811754017160   1.0
Br16   Br   0.957214190412238   0.041017722171986   0.420156035298568   1.0
N17   N   0.558425663813054   0.607492531275874   0.455927205787034   1.0
Sn18   Sn   0.032595683004992   0.081760838779871   0.987636617734552   1.0




# HOIP entry ID:                    0762
# Khazana ID:                       2612
# Organic cation source:            A. Mancini et al., J. Solid State Chem. 240, 55 (2016)
# Label:                            Trimethylammonium Tin Bromide
# Material class:                   Hybrid organic-inorganic perovskite ( MC_ino )
# Geometry class:                   Bulk crystalline materials ( GC_cry )
# Organic cation chemical formula:  (CH3)3NH
# Number of atom types:             5
# Total number of atoms:            18
# Atom types:                       C H N  Sn Br
# Number of each atom:              3 10 1  1 3
# Bandgap, HSE06 (eV):              3.4194
# Bandgap, GGA (eV):                2.6267
# Kpoint for VBM:                   0.5, 0.5, 0.5
# Kpoint for CBM:                   0.4211, 0.5, 0.4211
# Dielectric constant, electronic:  3.5685
# Dielectric constant, ionic:       3.1524
# Dielectric constant, total:       6.7209
# Refractive index:                 1.8891
# Atomization energy (eV/atom):     -4.3853
# Relative energy1 (eV/atom):       -0.0481
# Relative energy2 (eV/atom):       0.1248
# Volume of the unit cell (A^3):    254.86
# Density (g/cm^3):                 2.7193
# Tool:                             VASP
# Pseudopotential:                  PAW
# Note:                             ENCUT=400eV, k-spacing_relax=0.20/Angstrom, k-spacing_bandgap=0.15/Angstrom
# Created by:                       C.Kim, T.D.Huan, S.Krishnan, R. Ramprasad