data_1
_audit_creation_method   'Generated by vasp2cif'
_cell_length_a    6.40677348423
_cell_length_b    6.44196729633
_cell_length_c    6.40369458571
_cell_angle_alpha    96.1685687972
_cell_angle_beta    97.9176847208
_cell_angle_gamma    96.004127688

_symmetry_space_group_name_H-M    'P 1'
loop_
_atom_site_label
_atom_site_type_symbol
_atom_site_fract_x
_atom_site_fract_y
_atom_site_fract_z
_atom_site_occupancy
C1   C   0.595272206677883   0.670331778853573   0.383517380173011   1.0
C2   C   0.325295752867262   0.696345788817069   0.629368374671451   1.0
C3   C   0.557763670812108   0.408989978071688   0.640956326971704   1.0
H4   H   0.672216179663224   0.557841562608999   0.290949895990323   1.0
H5   H   0.243066246577548   0.791689630099022   0.522616519128803   1.0
H6   H   0.632291530223235   0.300568637041998   0.541030127403829   1.0
H7   H   0.442284871562165   0.323822222150476   0.719752492455228   1.0
H8   H   0.212187098119386   0.601757192391077   0.703398977445623   1.0
H9   H   0.332891128973166   0.456017973717032   0.389838798970452   1.0
H10   H   0.677468929194546   0.508863010027959   0.756817020009386   1.0
H11   H   0.505208344869793   0.763168356055409   0.279787485876277   1.0
H12   H   0.441024378352516   0.795061600162789   0.750167477214973   1.0
H13   H   0.711681810561238   0.772689434989104   0.500631792273602   1.0
Br14   Br   0.016678751443713   0.131109739540001   0.657882813472632   1.0
Br15   Br   0.028964313693066   0.691410621297464   0.079746599421469   1.0
Br16   Br   0.597554200817761   0.124676744359547   0.086280843779079   1.0
N17   N   0.443721982875324   0.550096403289018   0.501752460727694   1.0
Sn18   Sn   0.033238602716047   0.126079326527787   0.093154614014459   1.0




# HOIP entry ID:                    0763
# Khazana ID:                       2613
# Organic cation source:            A. Mancini et al., J. Solid State Chem. 240, 55 (2016)
# Label:                            Trimethylammonium Tin Bromide
# Material class:                   Hybrid organic-inorganic perovskite ( MC_ino )
# Geometry class:                   Bulk crystalline materials ( GC_cry )
# Organic cation chemical formula:  (CH3)3NH
# Number of atom types:             5
# Total number of atoms:            18
# Atom types:                       C H N  Sn Br
# Number of each atom:              3 10 1  1 3
# Bandgap, HSE06 (eV):              3.0176
# Bandgap, GGA (eV):                2.227
# Kpoint for VBM:                   0.5, 0.5, 0.5
# Kpoint for CBM:                   0.5, 0.5, 0.5
# Dielectric constant, electronic:  3.6687
# Dielectric constant, ionic:       3.1136
# Dielectric constant, total:       6.7823
# Refractive index:                 1.9154
# Atomization energy (eV/atom):     -4.3793
# Relative energy1 (eV/atom):       -0.0422
# Relative energy2 (eV/atom):       0.1307
# Volume of the unit cell (A^3):    258.34
# Density (g/cm^3):                 2.6826
# Tool:                             VASP
# Pseudopotential:                  PAW
# Note:                             ENCUT=400eV, k-spacing_relax=0.20/Angstrom, k-spacing_bandgap=0.15/Angstrom
# Created by:                       C.Kim, T.D.Huan, S.Krishnan, R. Ramprasad