data_1
_audit_creation_method   'Generated by vasp2cif'
_cell_length_a    6.17300733987
_cell_length_b    6.50259310368
_cell_length_c    6.35134778853
_cell_angle_alpha    92.1290469207
_cell_angle_beta    79.6884571771
_cell_angle_gamma    88.9124236941

_symmetry_space_group_name_H-M    'P 1'
loop_
_atom_site_label
_atom_site_type_symbol
_atom_site_fract_x
_atom_site_fract_y
_atom_site_fract_z
_atom_site_occupancy
C1   C   0.364547796626915   0.590569021047934   0.322182371187232   1.0
C2   C   0.614315642160420   0.787302322354648   0.522159532341007   1.0
C3   C   0.572414261154293   0.414014387238531   0.573123742395381   1.0
H4   H   0.280749258985189   0.735162319012865   0.302788650652630   1.0
H5   H   0.756270911846322   0.750227831515438   0.396772694308929   1.0
H6   H   0.456366578572350   0.289588669440200   0.580416912846125   1.0
H7   H   0.628179019925099   0.436796021115413   0.725364552957025   1.0
H8   H   0.529937321547038   0.927030063756902   0.487544317190334   1.0
H9   H   0.326295335456066   0.639237822551756   0.651246858075467   1.0
H10   H   0.712887576500847   0.383172697767243   0.444585157797256   1.0
H11   H   0.500545856023159   0.558710149808405   0.189102035953844   1.0
H12   H   0.664003937873581   0.801702302678578   0.677633693118494   1.0
H13   H   0.250424419213765   0.464183425973765   0.337253591620986   1.0
Br14   Br   0.534677851411111   0.090232101671411   0.040292651912949   1.0
Br15   Br   0.006978206283065   0.627370297622150   0.947520411573528   1.0
Br16   Br   0.062572068546658   0.095368413962809   0.543708925445230   1.0
N17   N   0.458219105429258   0.610474126646416   0.526478029240089   1.0
Sn18   Sn   0.992974852444853   0.072648025835598   0.986465871383515   1.0




# HOIP entry ID:                    0764
# Khazana ID:                       2614
# Organic cation source:            A. Mancini et al., J. Solid State Chem. 240, 55 (2016)
# Label:                            Trimethylammonium Tin Bromide
# Material class:                   Hybrid organic-inorganic perovskite ( MC_ino )
# Geometry class:                   Bulk crystalline materials ( GC_cry )
# Organic cation chemical formula:  (CH3)3NH
# Number of atom types:             5
# Total number of atoms:            18
# Atom types:                       C H N  Sn Br
# Number of each atom:              3 10 1  1 3
# Bandgap, HSE06 (eV):              2.5819
# Bandgap, GGA (eV):                1.8552
# Kpoint for VBM:                   0.5, 0.5, 0.5
# Kpoint for CBM:                   0.5, 0.5, 0.5
# Dielectric constant, electronic:  3.8166
# Dielectric constant, ionic:       4.2138
# Dielectric constant, total:       8.0304
# Refractive index:                 1.9536
# Atomization energy (eV/atom):     -4.3879
# Relative energy1 (eV/atom):       -0.0507
# Relative energy2 (eV/atom):       0.1222
# Volume of the unit cell (A^3):    250.57
# Density (g/cm^3):                 2.7658
# Tool:                             VASP
# Pseudopotential:                  PAW
# Note:                             ENCUT=400eV, k-spacing_relax=0.20/Angstrom, k-spacing_bandgap=0.15/Angstrom
# Created by:                       C.Kim, T.D.Huan, S.Krishnan, R. Ramprasad