data_1
_audit_creation_method   'Generated by vasp2cif'
_cell_length_a    4.92280356691
_cell_length_b    7.7431991225
_cell_length_c    7.21624877736
_cell_angle_alpha    102.548811639
_cell_angle_beta    76.1528774546
_cell_angle_gamma    89.488987912

_symmetry_space_group_name_H-M    'P 1'
loop_
_atom_site_label
_atom_site_type_symbol
_atom_site_fract_x
_atom_site_fract_y
_atom_site_fract_z
_atom_site_occupancy
C1   C   0.477030148265477   0.577315548029667   0.380609793253733   1.0
C2   C   0.732180314266273   0.785745089757000   0.585064828319446   1.0
C3   C   0.715992709179254   0.468122584009862   0.605815314507687   1.0
H4   H   0.364102121923843   0.692196722488134   0.363631013236720   1.0
H5   H   0.913590374491278   0.758029301051700   0.460287964866922   1.0
H6   H   0.582656223206534   0.356669664778330   0.601822559880318   1.0
H7   H   0.765854027570612   0.505509893377429   0.747887945817958   1.0
H8   H   0.603288339570845   0.898436645434963   0.579389664349762   1.0
H9   H   0.382484236608526   0.654800929734350   0.688115551011386   1.0
H10   H   0.907479949990112   0.435805790029797   0.489065124144624   1.0
H11   H   0.666777518219241   0.543892820362721   0.261960671578514   1.0
H12   H   0.795582538393639   0.810302258283585   0.722615419924026   1.0
H13   H   0.349385537910244   0.463262870419314   0.380993467523616   1.0
Br14   Br   0.440657598263400   0.205846291078949   0.951772459610730   1.0
Br15   Br   0.093724166632541   0.707696639289153   0.008144147114905   1.0
Br16   Br   0.215578553085521   0.093096526574584   0.473389078700478   1.0
N17   N   0.561415477949168   0.623979574919503   0.573047448078754   1.0
Sn18   Sn   0.967480164473550   0.076870850381063   0.155727548080506   1.0




# HOIP entry ID:                    0765
# Khazana ID:                       2615
# Organic cation source:            A. Mancini et al., J. Solid State Chem. 240, 55 (2016)
# Label:                            Trimethylammonium Tin Bromide
# Material class:                   Hybrid organic-inorganic perovskite ( MC_ino )
# Geometry class:                   Bulk crystalline materials ( GC_cry )
# Organic cation chemical formula:  (CH3)3NH
# Number of atom types:             5
# Total number of atoms:            18
# Atom types:                       C H N  Sn Br
# Number of each atom:              3 10 1  1 3
# Bandgap, HSE06 (eV):              3.5503
# Bandgap, GGA (eV):                2.6506
# Kpoint for VBM:                   0.4375, 0, 0.0833
# Kpoint for CBM:                   0, 0.1, 0.5
# Dielectric constant, electronic:  3.2787
# Dielectric constant, ionic:       2.2539
# Dielectric constant, total:       5.5326
# Refractive index:                 1.8107
# Atomization energy (eV/atom):     -4.3709
# Relative energy1 (eV/atom):       -0.0337
# Relative energy2 (eV/atom):       0.1392
# Volume of the unit cell (A^3):    260.16
# Density (g/cm^3):                 2.6639
# Tool:                             VASP
# Pseudopotential:                  PAW
# Note:                             ENCUT=400eV, k-spacing_relax=0.20/Angstrom, k-spacing_bandgap=0.15/Angstrom
# Created by:                       C.Kim, T.D.Huan, S.Krishnan, R. Ramprasad