data_1
_audit_creation_method   'Generated by vasp2cif'
_cell_length_a    6.20323878178
_cell_length_b    4.92264441266
_cell_length_c    8.56245324931
_cell_angle_alpha    91.7074931759
_cell_angle_beta    83.3780242682
_cell_angle_gamma    80.3481835912

_symmetry_space_group_name_H-M    'P 1'
loop_
_atom_site_label
_atom_site_type_symbol
_atom_site_fract_x
_atom_site_fract_y
_atom_site_fract_z
_atom_site_occupancy
C1   C   0.279646174842242   0.522761956155023   0.472490439171345   1.0
C2   C   0.579538918097327   0.795875524621948   0.495701443089089   1.0
C3   C   0.531595981423806   0.434559677301671   0.684387902704863   1.0
H4   H   0.184032625445170   0.693072780178525   0.418415868083933   1.0
H5   H   0.491839186369489   0.958524441083348   0.432163753989087   1.0
H6   H   0.413841233263504   0.316239160670286   0.741537586762888   1.0
H7   H   0.600421308089572   0.545104092363381   0.773056657450638   1.0
H8   H   0.673864193721627   0.877117246976880   0.580234319014011   1.0
H9   H   0.304201754830530   0.787400803683134   0.658891479288599   1.0
H10   H   0.662150619151092   0.303033989073256   0.608025091834712   1.0
H11   H   0.391201226614783   0.391739678324633   0.382260617879659   1.0
H12   H   0.687496024439142   0.647663342673866   0.412527686908362   1.0
H13   H   0.170953899431268   0.405013132229399   0.540052854809751   1.0
Br14   Br   0.522392608651316   0.823244621492663   0.063132710007771   1.0
Br15   Br   0.943772297939979   0.154862856773541   0.286473685698162   1.0
Br16   Br   0.013442160364619   0.085736522728588   0.796829090571030   1.0
N17   N   0.414749880304996   0.644778452780656   0.583886868565678   1.0
Sn18   Sn   0.975379907019573   0.718931720889280   0.053601944170495   1.0




# HOIP entry ID:                    0767
# Khazana ID:                       2617
# Organic cation source:            A. Mancini et al., J. Solid State Chem. 240, 55 (2016)
# Label:                            Trimethylammonium Tin Bromide
# Material class:                   Hybrid organic-inorganic perovskite ( MC_ino )
# Geometry class:                   Bulk crystalline materials ( GC_cry )
# Organic cation chemical formula:  (CH3)3NH
# Number of atom types:             5
# Total number of atoms:            18
# Atom types:                       C H N  Sn Br
# Number of each atom:              3 10 1  1 3
# Bandgap, HSE06 (eV):              3.5843
# Bandgap, GGA (eV):                2.7232
# Kpoint for VBM:                   0.5, 0.5, 0.5
# Kpoint for CBM:                   0.5, 0, 0.5
# Dielectric constant, electronic:  3.4755
# Dielectric constant, ionic:       3.2649
# Dielectric constant, total:       6.7404
# Refractive index:                 1.8643
# Atomization energy (eV/atom):     -4.3773
# Relative energy1 (eV/atom):       -0.0402
# Relative energy2 (eV/atom):       0.1327
# Volume of the unit cell (A^3):    255.72
# Density (g/cm^3):                 2.7101
# Tool:                             VASP
# Pseudopotential:                  PAW
# Note:                             ENCUT=400eV, k-spacing_relax=0.20/Angstrom, k-spacing_bandgap=0.15/Angstrom
# Created by:                       C.Kim, T.D.Huan, S.Krishnan, R. Ramprasad