data_1
_audit_creation_method   'Generated by vasp2cif'
_cell_length_a    6.0811698999
_cell_length_b    4.65175765465
_cell_length_c    9.04430873672
_cell_angle_alpha    93.4448911957
_cell_angle_beta    83.4801773234
_cell_angle_gamma    84.0705636322

_symmetry_space_group_name_H-M    'P 1'
loop_
_atom_site_label
_atom_site_type_symbol
_atom_site_fract_x
_atom_site_fract_y
_atom_site_fract_z
_atom_site_occupancy
C1   C   0.302303667914821   0.566519076896796   0.489062944456620   1.0
C2   C   0.631717356441129   0.842827033666090   0.488303728033777   1.0
C3   C   0.555239633222293   0.525465187886851   0.693067280886986   1.0
H4   H   0.213920079499474   0.731021095011556   0.430039587442749   1.0
H5   H   0.555535945615489   0.993251028976687   0.416617451470465   1.0
H6   H   0.427417142697692   0.412989628727885   0.752379933874558   1.0
H7   H   0.627701705847336   0.662597329352081   0.771916338199183   1.0
H8   H   0.736019982597085   0.946987078876653   0.560596372689744   1.0
H9   H   0.347854555901648   0.881835288470747   0.648861187522577   1.0
H10   H   0.684904527524523   0.373473738133541   0.630157987786191   1.0
H11   H   0.406062829022929   0.412383699740829   0.408299204827351   1.0
H12   H   0.729855978446153   0.663954738056376   0.419451176163065   1.0
H13   H   0.185720021315809   0.459128099026564   0.561397407574404   1.0
Br14   Br   0.555753810797775   0.739739164087652   0.086881921054818   1.0
Br15   Br   0.002844992495547   0.177742269177074   0.273494735120515   1.0
Br16   Br   0.027289705181566   0.101120562820306   0.801234546346450   1.0
N17   N   0.451285504467542   0.717071350075315   0.584674952479446   1.0
Sn18   Sn   0.015222561011115   0.672963631017048   0.050483244071600   1.0




# HOIP entry ID:                    0768
# Khazana ID:                       2618
# Organic cation source:            A. Mancini et al., J. Solid State Chem. 240, 55 (2016)
# Label:                            Trimethylammonium Tin Bromide
# Material class:                   Hybrid organic-inorganic perovskite ( MC_ino )
# Geometry class:                   Bulk crystalline materials ( GC_cry )
# Organic cation chemical formula:  (CH3)3NH
# Number of atom types:             5
# Total number of atoms:            18
# Atom types:                       C H N  Sn Br
# Number of each atom:              3 10 1  1 3
# Bandgap, HSE06 (eV):              3.2939
# Bandgap, GGA (eV):                2.4718
# Kpoint for VBM:                   0.5, 0.2778, 0.5
# Kpoint for CBM:                   0.4167, 0, 0.375
# Dielectric constant, electronic:  3.6935
# Dielectric constant, ionic:       19.9018
# Dielectric constant, total:       23.5953
# Refractive index:                 1.9219
# Atomization energy (eV/atom):     -4.3752
# Relative energy1 (eV/atom):       -0.0381
# Relative energy2 (eV/atom):       0.1348
# Volume of the unit cell (A^3):    252.16
# Density (g/cm^3):                 2.7484
# Tool:                             VASP
# Pseudopotential:                  PAW
# Note:                             ENCUT=400eV, k-spacing_relax=0.20/Angstrom, k-spacing_bandgap=0.15/Angstrom
# Created by:                       C.Kim, T.D.Huan, S.Krishnan, R. Ramprasad