data_1
_audit_creation_method   'Generated by vasp2cif'
_cell_length_a    6.58841798236
_cell_length_b    4.83094664837
_cell_length_c    8.10542157668
_cell_angle_alpha    90.5445978292
_cell_angle_beta    93.9683314672
_cell_angle_gamma    75.0717676707

_symmetry_space_group_name_H-M    'P 1'
loop_
_atom_site_label
_atom_site_type_symbol
_atom_site_fract_x
_atom_site_fract_y
_atom_site_fract_z
_atom_site_occupancy
C1   C   0.527285296039075   0.875286415693786   0.403375745457531   1.0
C2   C   0.440178741638000   0.911245110805645   0.700400850160392   1.0
C3   C   0.273407281495722   0.621770915633853   0.505304993833100   1.0
H4   H   0.589758237789056   0.061428196692518   0.423791216360584   1.0
H5   H   0.313184343656488   0.923678723561139   0.780737428345581   1.0
H6   H   0.225306483801233   0.599057257265194   0.375891071335452   1.0
H7   H   0.140806342516015   0.647584495633275   0.582547394837505   1.0
H8   H   0.568005032551731   0.721048065161106   0.728245339486875   1.0
H9   H   0.232453932781752   0.056238301618812   0.492009394456758   1.0
H10   H   0.401531748018577   0.440058712565829   0.547240606511529   1.0
H11   H   0.651991900761288   0.679358043059786   0.427879726008605   1.0
H12   H   0.498120937229146   0.102190814686622   0.711896794967139   1.0
H13   H   0.456551139609573   0.877032743053839   0.277672406112188   1.0
Br14   Br   0.932650592928340   0.196512100567752   0.259644641458586   1.0
Br15   Br   0.896989122620731   0.229215144323106   0.737261901109420   1.0
Br16   Br   0.358957626243914   0.456762505910525   0.032154519710751   1.0
N17   N   0.358731610066748   0.883184958117482   0.523251277658389   1.0
Sn18   Sn   0.927779630252729   0.609027495649720   0.008814692189795   1.0




# HOIP entry ID:                    0769
# Khazana ID:                       2619
# Organic cation source:            A. Mancini et al., J. Solid State Chem. 240, 55 (2016)
# Label:                            Trimethylammonium Tin Bromide
# Material class:                   Hybrid organic-inorganic perovskite ( MC_ino )
# Geometry class:                   Bulk crystalline materials ( GC_cry )
# Organic cation chemical formula:  (CH3)3NH
# Number of atom types:             5
# Total number of atoms:            18
# Atom types:                       C H N  Sn Br
# Number of each atom:              3 10 1  1 3
# Bandgap, HSE06 (eV):              3.8483
# Bandgap, GGA (eV):                2.932
# Kpoint for VBM:                   -0.3333, 0.2778, 0.5
# Kpoint for CBM:                   0.4167, 0, 0.4
# Dielectric constant, electronic:  3.4584
# Dielectric constant, ionic:       3.2674
# Dielectric constant, total:       6.7258
# Refractive index:                 1.8597
# Atomization energy (eV/atom):     -4.3771
# Relative energy1 (eV/atom):       -0.0399
# Relative energy2 (eV/atom):       0.133
# Volume of the unit cell (A^3):    248.67
# Density (g/cm^3):                 2.7869
# Tool:                             VASP
# Pseudopotential:                  PAW
# Note:                             ENCUT=400eV, k-spacing_relax=0.20/Angstrom, k-spacing_bandgap=0.15/Angstrom
# Created by:                       C.Kim, T.D.Huan, S.Krishnan, R. Ramprasad