data_1
_audit_creation_method   'Generated by vasp2cif'
_cell_length_a    6.31824347873
_cell_length_b    6.11784232072
_cell_length_c    6.14104965615
_cell_angle_alpha    89.986885795
_cell_angle_beta    89.4751213958
_cell_angle_gamma    88.5575287085

_symmetry_space_group_name_H-M    'P 1'
loop_
_atom_site_label
_atom_site_type_symbol
_atom_site_fract_x
_atom_site_fract_y
_atom_site_fract_z
_atom_site_occupancy
Br1   Br   0.008013923678305   0.986092262230777   0.560373754161766   1.0
Br2   Br   0.546695959052634   0.062892677030902   0.061534110305459   1.0
Br3   Br   0.024705997847207   0.502531719397965   0.060649313133119   1.0
H4   H   0.373452948476441   0.841541148745264   0.566197335562805   1.0
H5   H   0.667886443106873   0.571848488182347   0.298506578116275   1.0
H6   H   0.640077745015716   0.852136270238368   0.559139018440419   1.0
H7   H   0.341069848616023   0.317505278381127   0.565781385161920   1.0
H8   H   0.678364512937492   0.569719684036663   0.814557721634770   1.0
H9   H   0.397574763676097   0.590689445320038   0.858046789717470   1.0
H10   H   0.385612944140028   0.593318508925805   0.272999614266603   1.0
H11   H   0.620543628257103   0.265748702045244   0.557278549455170   1.0
C12   C   0.523819496784895   0.569073061162491   0.738355909305724   1.0
C13   C   0.516755199489161   0.570612503612558   0.384353711990357   1.0
C14   C   0.496142307913331   0.392013276551616   0.561466505947870   1.0
Sn15   Sn   0.994434745986943   0.046356758502533   0.059926483464245   1.0
N16   N   0.512889535021813   0.749970215636345   0.562243219336011   1.0




# HOIP entry ID:                    0770
# Khazana ID:                       2620
# Organic cation source:            B. Zhou et al., Angew. Chem. Int. Ed. 50, 11441 (2011)
# Label:                            Azetidinium Tin Bromide
# Material class:                   Hybrid organic-inorganic perovskite ( MC_ino )
# Geometry class:                   Bulk crystalline materials ( GC_cry )
# Organic cation chemical formula:  C3H6N2
# Number of atom types:             5
# Total number of atoms:            16
# Atom types:                       C H N  Sn Br
# Number of each atom:              3 8 1  1 3
# Bandgap, HSE06 (eV):              2.1315
# Bandgap, GGA (eV):                1.4384
# Kpoint for VBM:                   0.5, 0.5, 0.5
# Kpoint for CBM:                   0.5, 0.5, 0.5
# Dielectric constant, electronic:  4.3517
# Dielectric constant, ionic:       20.5078
# Dielectric constant, total:       24.8595
# Refractive index:                 2.0861
# Atomization energy (eV/atom):     -4.4447
# Relative energy1 (eV/atom):       -0.0192
# Relative energy2 (eV/atom):       0.1753
# Volume of the unit cell (A^3):    237.29
# Density (g/cm^3):                 2.9065
# Tool:                             VASP
# Pseudopotential:                  PAW
# Note:                             ENCUT=400eV, k-spacing_relax=0.20/Angstrom, k-spacing_bandgap=0.15/Angstrom
# Created by:                       C.Kim, T.D.Huan, S.Krishnan, R. Ramprasad