data_1
_audit_creation_method   'Generated by vasp2cif'
_cell_length_a    6.16422000604
_cell_length_b    6.13797230648
_cell_length_c    6.23632830163
_cell_angle_alpha    93.2813769716
_cell_angle_beta    85.6920644187
_cell_angle_gamma    90.7069740716

_symmetry_space_group_name_H-M    'P 1'
loop_
_atom_site_label
_atom_site_type_symbol
_atom_site_fract_x
_atom_site_fract_y
_atom_site_fract_z
_atom_site_occupancy
Br1   Br   0.473226444016163   0.059430194415754   0.969259667370963   1.0
Br2   Br   0.974832144424283   0.110372620469413   0.474941370585142   1.0
Br3   Br   0.967207540709914   0.584018895878771   0.955212682764795   1.0
H4   H   0.486442113190854   0.886645809911968   0.315789324205156   1.0
H5   H   0.721016024905133   0.682521339389858   0.633541717635183   1.0
H6   H   0.419152026538569   0.897249606081758   0.582610466670076   1.0
H7   H   0.501587556553439   0.298800104778017   0.414986684167616   1.0
H8   H   0.145216477285643   0.629360841599947   0.513324912085118   1.0
H9   H   0.278077806557796   0.571193666589124   0.251055425475741   1.0
H10   H   0.752231120431823   0.614635289270034   0.349330122438438   1.0
H11   H   0.422055283935627   0.411297420673833   0.679122936863166   1.0
C12   C   0.299970679397404   0.600148257823179   0.421828056770799   1.0
C13   C   0.638675150709048   0.631593389445278   0.491227189432912   1.0
C14   C   0.464913181212353   0.448429765397982   0.512248136746457   1.0
Sn15   Sn   0.950761842723779   0.124603283328042   0.934301233190013   1.0
N16   N   0.459584607408168   0.794999514947115   0.449150073598389   1.0




# HOIP entry ID:                    0771
# Khazana ID:                       2621
# Organic cation source:            B. Zhou et al., Angew. Chem. Int. Ed. 50, 11441 (2011)
# Label:                            Azetidinium Tin Bromide
# Material class:                   Hybrid organic-inorganic perovskite ( MC_ino )
# Geometry class:                   Bulk crystalline materials ( GC_cry )
# Organic cation chemical formula:  C3H6N2
# Number of atom types:             5
# Total number of atoms:            16
# Atom types:                       C H N  Sn Br
# Number of each atom:              3 8 1  1 3
# Bandgap, HSE06 (eV):              2.0922
# Bandgap, GGA (eV):                1.4078
# Kpoint for VBM:                   0.5, 0.5, 0.5
# Kpoint for CBM:                   0.5, 0.5, 0.5
# Dielectric constant, electronic:  4.409
# Dielectric constant, ionic:       9.9178
# Dielectric constant, total:       14.3267
# Refractive index:                 2.0997
# Atomization energy (eV/atom):     -4.4432
# Relative energy1 (eV/atom):       -0.0177
# Relative energy2 (eV/atom):       0.1768
# Volume of the unit cell (A^3):    234.9
# Density (g/cm^3):                 2.9361
# Tool:                             VASP
# Pseudopotential:                  PAW
# Note:                             ENCUT=400eV, k-spacing_relax=0.20/Angstrom, k-spacing_bandgap=0.15/Angstrom
# Created by:                       C.Kim, T.D.Huan, S.Krishnan, R. Ramprasad