data_1
_audit_creation_method   'Generated by vasp2cif'
_cell_length_a    6.14155593481
_cell_length_b    6.2575972644
_cell_length_c    6.13632548277
_cell_angle_alpha    94.5391959809
_cell_angle_beta    91.9869494454
_cell_angle_gamma    97.8388622403

_symmetry_space_group_name_H-M    'P 1'
loop_
_atom_site_label
_atom_site_type_symbol
_atom_site_fract_x
_atom_site_fract_y
_atom_site_fract_z
_atom_site_occupancy
Br1   Br   0.451457873520006   0.043304086269785   0.021671778708416   1.0
Br2   Br   0.965706393011416   0.027728081097308   0.460658245975466   1.0
Br3   Br   0.022993263593143   0.486943719292057   0.995524461541294   1.0
H4   H   0.424471717843133   0.523981337675302   0.188749844449774   1.0
H5   H   0.822960858264075   0.556020793219353   0.462134417102583   1.0
H6   H   0.569092419197176   0.755718719152185   0.299229017548534   1.0
H7   H   0.465575729129775   0.375514511757395   0.750955429552306   1.0
H8   H   0.309140294308257   0.768753291503231   0.571337837917191   1.0
H9   H   0.198030441665729   0.492927575882689   0.486858432734692   1.0
H10   H   0.634950086407756   0.312651222874145   0.394382849319200   1.0
H11   H   0.609595057910262   0.643312576250651   0.789353323685283   1.0
C12   C   0.347044466158366   0.606469255256378   0.528007704463803   1.0
C13   C   0.653300187547273   0.479753271633300   0.463098661611667   1.0
C14   C   0.522876753819631   0.519790037486423   0.670157695287138   1.0
Sn15   Sn   0.985195837515342   0.034051967493468   0.985217915233001   1.0
N16   N   0.498858620108692   0.603059553156335   0.331232384869693   1.0




# HOIP entry ID:                    0772
# Khazana ID:                       2622
# Organic cation source:            B. Zhou et al., Angew. Chem. Int. Ed. 50, 11441 (2011)
# Label:                            Azetidinium Tin Bromide
# Material class:                   Hybrid organic-inorganic perovskite ( MC_ino )
# Geometry class:                   Bulk crystalline materials ( GC_cry )
# Organic cation chemical formula:  C3H6N2
# Number of atom types:             5
# Total number of atoms:            16
# Atom types:                       C H N  Sn Br
# Number of each atom:              3 8 1  1 3
# Bandgap, HSE06 (eV):              2.4449
# Bandgap, GGA (eV):                1.8059
# Kpoint for VBM:                   0.5, 0.5, 0.5
# Kpoint for CBM:                   0.5, 0.5, 0.5
# Dielectric constant, electronic:  4.3812
# Dielectric constant, ionic:       18.9042
# Dielectric constant, total:       23.2853
# Refractive index:                 2.0931
# Atomization energy (eV/atom):     -4.4404
# Relative energy1 (eV/atom):       -0.015
# Relative energy2 (eV/atom):       0.1795
# Volume of the unit cell (A^3):    232.64
# Density (g/cm^3):                 2.9646
# Tool:                             VASP
# Pseudopotential:                  PAW
# Note:                             ENCUT=400eV, k-spacing_relax=0.20/Angstrom, k-spacing_bandgap=0.15/Angstrom
# Created by:                       C.Kim, T.D.Huan, S.Krishnan, R. Ramprasad