data_1
_audit_creation_method   'Generated by vasp2cif'
_cell_length_a    6.17605549768
_cell_length_b    6.1591526616
_cell_length_c    6.19337018249
_cell_angle_alpha    86.1987131972
_cell_angle_beta    82.8033944234
_cell_angle_gamma    93.9587557634

_symmetry_space_group_name_H-M    'P 1'
loop_
_atom_site_label
_atom_site_type_symbol
_atom_site_fract_x
_atom_site_fract_y
_atom_site_fract_z
_atom_site_occupancy
Br1   Br   0.009657544353907   0.053481061831576   0.495898773246196   1.0
Br2   Br   0.566591881882999   0.054183838240945   0.049505464093066   1.0
Br3   Br   0.053065563739956   0.564787183992429   0.012819971173258   1.0
H4   H   0.367328512020350   0.808022890486029   0.706282468780437   1.0
H5   H   0.396020281970486   0.649827755953268   0.278149629388018   1.0
H6   H   0.572782728538037   0.879671616140271   0.504180792161122   1.0
H7   H   0.479765075176715   0.259087789144132   0.570495355202354   1.0
H8   H   0.787997557430486   0.633059212057830   0.669908529485731   1.0
H9   H   0.550029780484877   0.521690146924506   0.848389072182194   1.0
H10   H   0.213113193280918   0.536088695459576   0.511734562663889   1.0
H11   H   0.681540701928874   0.407509966230229   0.375053549184130   1.0
C12   C   0.617309169935467   0.573216717039394   0.680579269707586   1.0
C13   C   0.382839860300869   0.583264495191898   0.446259173527522   1.0
C14   C   0.550207468273797   0.421080904981331   0.507002999220859   1.0
Sn15   Sn   0.029378111477278   0.099614359801180   0.034201738107185   1.0
N16   N   0.479042569204942   0.750443366525417   0.591338651876420   1.0




# HOIP entry ID:                    0773
# Khazana ID:                       2623
# Organic cation source:            B. Zhou et al., Angew. Chem. Int. Ed. 50, 11441 (2011)
# Label:                            Azetidinium Tin Bromide
# Material class:                   Hybrid organic-inorganic perovskite ( MC_ino )
# Geometry class:                   Bulk crystalline materials ( GC_cry )
# Organic cation chemical formula:  C3H6N2
# Number of atom types:             5
# Total number of atoms:            16
# Atom types:                       C H N  Sn Br
# Number of each atom:              3 8 1  1 3
# Bandgap, HSE06 (eV):              2.1966
# Bandgap, GGA (eV):                1.4949
# Kpoint for VBM:                   0.5, 0.5, 0.5
# Kpoint for CBM:                   0.5, 0.5, 0.5
# Dielectric constant, electronic:  4.3752
# Dielectric constant, ionic:       9.7017
# Dielectric constant, total:       14.0768
# Refractive index:                 2.0917
# Atomization energy (eV/atom):     -4.4413
# Relative energy1 (eV/atom):       -0.0159
# Relative energy2 (eV/atom):       0.1786
# Volume of the unit cell (A^3):    232.51
# Density (g/cm^3):                 2.9662
# Tool:                             VASP
# Pseudopotential:                  PAW
# Note:                             ENCUT=400eV, k-spacing_relax=0.20/Angstrom, k-spacing_bandgap=0.15/Angstrom
# Created by:                       C.Kim, T.D.Huan, S.Krishnan, R. Ramprasad