data_1
_audit_creation_method   'Generated by vasp2cif'
_cell_length_a    8.3692845037
_cell_length_b    6.12138930276
_cell_length_c    4.69242117924
_cell_angle_alpha    92.6370645462
_cell_angle_beta    84.53602985
_cell_angle_gamma    86.3446311987

_symmetry_space_group_name_H-M    'P 1'
loop_
_atom_site_label
_atom_site_type_symbol
_atom_site_fract_x
_atom_site_fract_y
_atom_site_fract_z
_atom_site_occupancy
Br1   Br   0.209282184095308   0.636368675181828   0.779032209819590   1.0
Br2   Br   0.967302337337571   0.140433281846455   0.280588120645781   1.0
Br3   Br   0.706563372644482   0.696420159523100   0.872905449438804   1.0
H4   H   0.404790117759724   0.996307931886712   0.945520506965252   1.0
H5   H   0.601086176388215   0.364059247990845   0.030921405102376   1.0
H6   H   0.663132686367867   0.097710724026562   0.045408304033586   1.0
H7   H   0.641528166591741   0.148540701035223   0.542557688379624   1.0
H8   H   0.513769788731707   0.394297078780610   0.524118638222312   1.0
H9   H   0.278780863096166   0.157985723900936   0.539549793786726   1.0
H10   H   0.411283180864693   0.919383360653150   0.453978027262543   1.0
H11   H   0.324381304187128   0.273176874893792   0.037256651350454   1.0
C12   C   0.539946373604600   0.224016529810946   0.446163843927650   1.0
C13   C   0.402807956748028   0.137149203586027   0.095103809909382   1.0
C14   C   0.389553104310941   0.092830159373349   0.416678164214026   1.0
Sn15   Sn   0.972440269381046   0.675249430035016   0.274596575357073   1.0
N16   N   0.573792117890761   0.216870917475461   0.117910811584899   1.0




# HOIP entry ID:                    0774
# Khazana ID:                       2624
# Organic cation source:            B. Zhou et al., Angew. Chem. Int. Ed. 50, 11441 (2011)
# Label:                            Azetidinium Tin Bromide
# Material class:                   Hybrid organic-inorganic perovskite ( MC_ino )
# Geometry class:                   Bulk crystalline materials ( GC_cry )
# Organic cation chemical formula:  C3H6N2
# Number of atom types:             5
# Total number of atoms:            16
# Atom types:                       C H N  Sn Br
# Number of each atom:              3 8 1  1 3
# Bandgap, HSE06 (eV):              2.926
# Bandgap, GGA (eV):                1.9285
# Kpoint for VBM:                   0.5, 0.5, 0.2895
# Kpoint for CBM:                   0.5, 0.5, 0
# Dielectric constant, electronic:  3.9254
# Dielectric constant, ionic:       10.5824
# Dielectric constant, total:       14.5078
# Refractive index:                 1.9813
# Atomization energy (eV/atom):     -4.4331
# Relative energy1 (eV/atom):       -0.0077
# Relative energy2 (eV/atom):       0.1868
# Volume of the unit cell (A^3):    238.49
# Density (g/cm^3):                 2.8919
# Tool:                             VASP
# Pseudopotential:                  PAW
# Note:                             ENCUT=400eV, k-spacing_relax=0.20/Angstrom, k-spacing_bandgap=0.15/Angstrom
# Created by:                       C.Kim, T.D.Huan, S.Krishnan, R. Ramprasad