data_1
_audit_creation_method   'Generated by vasp2cif'
_cell_length_a    8.72634082061
_cell_length_b    4.44315397126
_cell_length_c    6.51206568415
_cell_angle_alpha    71.8552067632
_cell_angle_beta    91.8980797351
_cell_angle_gamma    100.937885997

_symmetry_space_group_name_H-M    'P 1'
loop_
_atom_site_label
_atom_site_type_symbol
_atom_site_fract_x
_atom_site_fract_y
_atom_site_fract_z
_atom_site_occupancy
Br1   Br   0.795473305315674   0.777829771989950   0.188219707546622   1.0
Br2   Br   0.095438187028137   0.254526963307896   0.542888629444292   1.0
Br3   Br   0.286245033155751   0.009908961500692   0.069861505110936   1.0
H4   H   0.552065091286913   0.494322251971383   0.759690870950429   1.0
H5   H   0.338740083655949   0.694891715389232   0.548853533945959   1.0
H6   H   0.331686841382876   0.941295740806844   0.693138922667288   1.0
H7   H   0.549567192790917   0.062881368497372   0.325787063625562   1.0
H8   H   0.502588577570059   0.352806458868265   0.437747747090178   1.0
H9   H   0.695648593015974   0.191696312477681   0.736005520691535   1.0
H10   H   0.760826594971519   0.967123805061007   0.586358558446037   1.0
H11   H   0.507939097450219   0.699809971085294   0.939130930973022   1.0
C12   C   0.533931809588076   0.116353785052070   0.474690118214653   1.0
C13   C   0.536380634504191   0.724024400458568   0.773130216585763   1.0
C14   C   0.657867007016208   0.021230876726868   0.646633735543716   1.0
Sn15   Sn   0.032402786019091   0.418093022326900   0.104976548737724   1.0
N16   N   0.407099165248468   0.849854594479879   0.619976390426302   1.0




# HOIP entry ID:                    0777
# Khazana ID:                       2627
# Organic cation source:            B. Zhou et al., Angew. Chem. Int. Ed. 50, 11441 (2011)
# Label:                            Azetidinium Tin Bromide
# Material class:                   Hybrid organic-inorganic perovskite ( MC_ino )
# Geometry class:                   Bulk crystalline materials ( GC_cry )
# Organic cation chemical formula:  C3H6N2
# Number of atom types:             5
# Total number of atoms:            16
# Atom types:                       C H N  Sn Br
# Number of each atom:              3 8 1  1 3
# Bandgap, HSE06 (eV):              3.7768
# Bandgap, GGA (eV):                2.8735
# Kpoint for VBM:                   -0.25, 0.1667, 0.3571
# Kpoint for CBM:                   0.375, 0, 0.2857
# Dielectric constant, electronic:  3.6902
# Dielectric constant, ionic:       15.8067
# Dielectric constant, total:       19.497
# Refractive index:                 1.921
# Atomization energy (eV/atom):     -4.4303
# Relative energy1 (eV/atom):       -0.0048
# Relative energy2 (eV/atom):       0.1897
# Volume of the unit cell (A^3):    235.48
# Density (g/cm^3):                 2.9288
# Tool:                             VASP
# Pseudopotential:                  PAW
# Note:                             ENCUT=400eV, k-spacing_relax=0.20/Angstrom, k-spacing_bandgap=0.15/Angstrom
# Created by:                       C.Kim, T.D.Huan, S.Krishnan, R. Ramprasad