data_1
_audit_creation_method   'Generated by vasp2cif'
_cell_length_a    6.47511602149
_cell_length_b    4.44889201664
_cell_length_c    8.98968554483
_cell_angle_alpha    107.498797297
_cell_angle_beta    96.5853084254
_cell_angle_gamma    72.7232960692

_symmetry_space_group_name_H-M    'P 1'
loop_
_atom_site_label
_atom_site_type_symbol
_atom_site_fract_x
_atom_site_fract_y
_atom_site_fract_z
_atom_site_occupancy
Br1   Br   0.183864098450954   0.976444612156165   0.195721737730892   1.0
Br2   Br   0.538197961042549   0.160360069239808   0.895765239844394   1.0
Br3   Br   0.065425034540162   0.726797576254974   0.706199041092695   1.0
H4   H   0.752286137216593   0.950626278490041   0.440691282263671   1.0
H5   H   0.541912977434791   0.358337580330783   0.653175527688454   1.0
H6   H   0.687706356527428   0.612584002652767   0.659600792403580   1.0
H7   H   0.321671092234403   0.509342458405975   0.440144443366684   1.0
H8   H   0.432892348620371   0.848366234983153   0.487492070162155   1.0
H9   H   0.735230280553687   0.504218336660628   0.297691865385232   1.0
H10   H   0.585026857574917   0.213259965239132   0.230542131584933   1.0
H11   H   0.934443134812895   0.199239779741859   0.485621969327056   1.0
C12   C   0.470440808570594   0.582421953208623   0.456734929231295   1.0
C13   C   0.767996375062410   0.194433244350051   0.456364943129486   1.0
C14   C   0.644166398609023   0.369248771363445   0.334151235826077   1.0
Sn15   Sn   0.100068598973394   0.378269007620645   0.959321475119211   1.0
N16   N   0.614131539775727   0.445720129301669   0.584551315843726   1.0




# HOIP entry ID:                    0778
# Khazana ID:                       2628
# Organic cation source:            B. Zhou et al., Angew. Chem. Int. Ed. 50, 11441 (2011)
# Label:                            Azetidinium Tin Bromide
# Material class:                   Hybrid organic-inorganic perovskite ( MC_ino )
# Geometry class:                   Bulk crystalline materials ( GC_cry )
# Organic cation chemical formula:  C3H6N2
# Number of atom types:             5
# Total number of atoms:            16
# Atom types:                       C H N  Sn Br
# Number of each atom:              3 8 1  1 3
# Bandgap, HSE06 (eV):              3.7412
# Bandgap, GGA (eV):                2.8338
# Kpoint for VBM:                   0.3333, 0.2, 0.1
# Kpoint for CBM:                   0.3333, 0, 0.5
# Dielectric constant, electronic:  3.6914
# Dielectric constant, ionic:       13.8612
# Dielectric constant, total:       17.5526
# Refractive index:                 1.9213
# Atomization energy (eV/atom):     -4.4303
# Relative energy1 (eV/atom):       -0.0049
# Relative energy2 (eV/atom):       0.1896
# Volume of the unit cell (A^3):    235.75
# Density (g/cm^3):                 2.9255
# Tool:                             VASP
# Pseudopotential:                  PAW
# Note:                             ENCUT=400eV, k-spacing_relax=0.20/Angstrom, k-spacing_bandgap=0.15/Angstrom
# Created by:                       C.Kim, T.D.Huan, S.Krishnan, R. Ramprasad