data_1
_audit_creation_method   'Generated by vasp2cif'
_cell_length_a    8.75111705791
_cell_length_b    4.45940165533
_cell_length_c    6.44939925408
_cell_angle_alpha    106.703843
_cell_angle_beta    91.9056379317
_cell_angle_gamma    78.2270622875

_symmetry_space_group_name_H-M    'P 1'
loop_
_atom_site_label
_atom_site_type_symbol
_atom_site_fract_x
_atom_site_fract_y
_atom_site_fract_z
_atom_site_occupancy
Br1   Br   0.194805220796688   0.767654220142703   0.819324702521307   1.0
Br2   Br   0.895231878134794   0.256242963310918   0.464355712628397   1.0
Br3   Br   0.706074178895307   0.009360571298572   0.936943547466981   1.0
H4   H   0.441945701635916   0.503417674759383   0.255995099378317   1.0
H5   H   0.653130236495954   0.699487184797491   0.466302203315344   1.0
H6   H   0.659162150656009   0.946308721734376   0.318278452501204   1.0
H7   H   0.436563008104436   0.057874731446560   0.681349293059903   1.0
H8   H   0.484538123997048   0.350520699529547   0.570963998530566   1.0
H9   H   0.299683630087841   0.195707977131313   0.262294285926714   1.0
H10   H   0.229295416636191   0.975187787863796   0.413206412305627   1.0
H11   H   0.488307198336145   0.701611237769185   0.069849073227381   1.0
C12   C   0.454670265152672   0.115886677273977   0.532719522217960   1.0
C13   C   0.457599370571607   0.729186821044927   0.236822270875599   1.0
C14   C   0.334150188333389   0.025751860660449   0.356077462946686   1.0
Sn15   Sn   0.958823374584149   0.405061719089410   0.903166116051395   1.0
N16   N   0.584230057581806   0.853959152147446   0.391941847046624   1.0




# HOIP entry ID:                    0779
# Khazana ID:                       2629
# Organic cation source:            B. Zhou et al., Angew. Chem. Int. Ed. 50, 11441 (2011)
# Label:                            Azetidinium Tin Bromide
# Material class:                   Hybrid organic-inorganic perovskite ( MC_ino )
# Geometry class:                   Bulk crystalline materials ( GC_cry )
# Organic cation chemical formula:  C3H6N2
# Number of atom types:             5
# Total number of atoms:            16
# Atom types:                       C H N  Sn Br
# Number of each atom:              3 8 1  1 3
# Bandgap, HSE06 (eV):              3.7496
# Bandgap, GGA (eV):                2.8445
# Kpoint for VBM:                   -0.25, -0.1667, 0.3571
# Kpoint for CBM:                   0.375, 0, 0.2857
# Dielectric constant, electronic:  3.6924
# Dielectric constant, ionic:       15.242
# Dielectric constant, total:       18.9343
# Refractive index:                 1.9216
# Atomization energy (eV/atom):     -4.4304
# Relative energy1 (eV/atom):       -0.0049
# Relative energy2 (eV/atom):       0.1896
# Volume of the unit cell (A^3):    235.91
# Density (g/cm^3):                 2.9235
# Tool:                             VASP
# Pseudopotential:                  PAW
# Note:                             ENCUT=400eV, k-spacing_relax=0.20/Angstrom, k-spacing_bandgap=0.15/Angstrom
# Created by:                       C.Kim, T.D.Huan, S.Krishnan, R. Ramprasad