data_1
_audit_creation_method   'Generated by vasp2cif'
_cell_length_a    8.51027547501
_cell_length_b    4.66056031714
_cell_length_c    6.30987036912
_cell_angle_alpha    74.9372189281
_cell_angle_beta    90.2717781106
_cell_angle_gamma    101.281776088

_symmetry_space_group_name_H-M    'P 1'
loop_
_atom_site_label
_atom_site_type_symbol
_atom_site_fract_x
_atom_site_fract_y
_atom_site_fract_z
_atom_site_occupancy
Br1   Br   0.794503561310648   0.777113412552879   0.188700832395682   1.0
Br2   Br   0.095612918103726   0.266088063471599   0.540448462485550   1.0
Br3   Br   0.285852093261745   0.992914734991466   0.061312727894084   1.0
H4   H   0.593787261851404   0.600086650641650   0.656713806209716   1.0
H5   H   0.348108876537850   0.728528950727288   0.493557953706343   1.0
H6   H   0.322754293483506   0.906778955186937   0.685146799377094   1.0
H7   H   0.571005821040067   0.120016820880593   0.320455257801129   1.0
H8   H   0.475436628257725   0.347684778499499   0.444556005896182   1.0
H9   H   0.634060903531960   0.192663168857891   0.791644424306995   1.0
H10   H   0.768703278234952   0.101736024598978   0.615585094928726   1.0
H11   H   0.505782645043929   0.643893274831640   0.902390970332107   1.0
C12   C   0.528562619950051   0.147884174458078   0.474637604258732   1.0
C13   C   0.544384077364064   0.749540557463789   0.731325396547419   1.0
C14   C   0.643470928558621   0.076662554087214   0.664420814949388   1.0
Sn15   Sn   0.029731776568376   0.399253051179947   0.101033635342482   1.0
N16   N   0.407502316901343   0.857854827570513   0.590490213568387   1.0




# HOIP entry ID:                    0781
# Khazana ID:                       2631
# Organic cation source:            B. Zhou et al., Angew. Chem. Int. Ed. 50, 11441 (2011)
# Label:                            Azetidinium Tin Bromide
# Material class:                   Hybrid organic-inorganic perovskite ( MC_ino )
# Geometry class:                   Bulk crystalline materials ( GC_cry )
# Organic cation chemical formula:  C3H6N2
# Number of atom types:             5
# Total number of atoms:            16
# Atom types:                       C H N  Sn Br
# Number of each atom:              3 8 1  1 3
# Bandgap, HSE06 (eV):              3.5445
# Bandgap, GGA (eV):                2.6498
# Kpoint for VBM:                   -0.25, 0.2778, 0.3571
# Kpoint for CBM:                   0.375, 0, 0.4286
# Dielectric constant, electronic:  3.7132
# Dielectric constant, ionic:       5.4976
# Dielectric constant, total:       9.2108
# Refractive index:                 1.927
# Atomization energy (eV/atom):     -4.4284
# Relative energy1 (eV/atom):       -0.003
# Relative energy2 (eV/atom):       0.1915
# Volume of the unit cell (A^3):    236.72
# Density (g/cm^3):                 2.9135
# Tool:                             VASP
# Pseudopotential:                  PAW
# Note:                             ENCUT=400eV, k-spacing_relax=0.20/Angstrom, k-spacing_bandgap=0.15/Angstrom
# Created by:                       C.Kim, T.D.Huan, S.Krishnan, R. Ramprasad