data_1
_audit_creation_method   'Generated by vasp2cif'
_cell_length_a    6.07388988576
_cell_length_b    4.32605884901
_cell_length_c    8.84409705921
_cell_angle_alpha    88.9005412734
_cell_angle_beta    91.0972372942
_cell_angle_gamma    83.1360643851

_symmetry_space_group_name_H-M    'P 1'
loop_
_atom_site_label
_atom_site_type_symbol
_atom_site_fract_x
_atom_site_fract_y
_atom_site_fract_z
_atom_site_occupancy
Br1   Br   0.925099129280436   0.803557891125036   0.782777910015823   1.0
Br2   Br   0.378080363625965   0.108044868635054   0.056335990226705   1.0
Br3   Br   0.904078182356033   0.794526495837591   0.282856693789657   1.0
H4   H   0.243695160755986   0.991955492840519   0.514401753688104   1.0
H5   H   0.437471514836740   0.232300050421020   0.319205554349997   1.0
H6   H   0.309654777962641   0.576807108752437   0.361064373615413   1.0
H7   H   0.719175195639945   0.251215628865186   0.508378520317881   1.0
H8   H   0.617151805499595   0.651306983812833   0.530069139985300   1.0
H9   H   0.357052751026388   0.504814948102796   0.728569930077605   1.0
H10   H   0.493698126005494   0.118915753798147   0.726893319499957   1.0
H11   H   0.087148531979615   0.362565889853056   0.535364858036896   1.0
C12   C   0.573456972546723   0.415196871366298   0.530162004943611   1.0
C13   C   0.253220789642971   0.237370323823982   0.533642093433841   1.0
C14   C   0.422022661184793   0.315357002319567   0.656377026677070   1.0
Sn15   Sn   0.911375186432076   0.270714599478387   0.025331589900953   1.0
N16   N   0.391728851224587   0.374780090968100   0.409059241441011   1.0




# HOIP entry ID:                    0782
# Khazana ID:                       2632
# Organic cation source:            B. Zhou et al., Angew. Chem. Int. Ed. 50, 11441 (2011)
# Label:                            Azetidinium Tin Bromide
# Material class:                   Hybrid organic-inorganic perovskite ( MC_ino )
# Geometry class:                   Bulk crystalline materials ( GC_cry )
# Organic cation chemical formula:  C3H6N2
# Number of atom types:             5
# Total number of atoms:            16
# Atom types:                       C H N  Sn Br
# Number of each atom:              3 8 1  1 3
# Bandgap, HSE06 (eV):              3.5946
# Bandgap, GGA (eV):                2.762
# Kpoint for VBM:                   0.5, 0.1667, 0.5
# Kpoint for CBM:                   0.4167, 0, 0.375
# Dielectric constant, electronic:  3.9099
# Dielectric constant, ionic:       8.5143
# Dielectric constant, total:       12.4242
# Refractive index:                 1.9773
# Atomization energy (eV/atom):     -4.4292
# Relative energy1 (eV/atom):       -0.0038
# Relative energy2 (eV/atom):       0.1907
# Volume of the unit cell (A^3):    230.63
# Density (g/cm^3):                 2.9904
# Tool:                             VASP
# Pseudopotential:                  PAW
# Note:                             ENCUT=400eV, k-spacing_relax=0.20/Angstrom, k-spacing_bandgap=0.15/Angstrom
# Created by:                       C.Kim, T.D.Huan, S.Krishnan, R. Ramprasad