data_1
_audit_creation_method   'Generated by vasp2cif'
_cell_length_a    4.3791102189
_cell_length_b    6.04877655776
_cell_length_c    8.81594250793
_cell_angle_alpha    92.5447522911
_cell_angle_beta    90.0149882103
_cell_angle_gamma    96.0610817131

_symmetry_space_group_name_H-M    'P 1'
loop_
_atom_site_label
_atom_site_type_symbol
_atom_site_fract_x
_atom_site_fract_y
_atom_site_fract_z
_atom_site_occupancy
Br1   Br   0.337461054106095   0.623685302112971   0.139496098875924   1.0
Br2   Br   0.969998594471627   0.070202189699336   0.889721285075346   1.0
Br3   Br   0.322714485888378   0.594996046153412   0.633852471260518   1.0
H4   H   0.868249991073328   0.987827732271544   0.188089189395207   1.0
H5   H   0.973865801980281   0.837598562721940   0.490761550717468   1.0
H6   H   0.646658106283226   0.794610521752274   0.391666357280876   1.0
H7   H   0.459764798630835   0.092681564245105   0.537673447711308   1.0
H8   H   0.838170218858053   0.172731890922519   0.606120239189449   1.0
H9   H   0.940742189936882   0.409591052416487   0.387279724322134   1.0
H10   H   0.595629377212652   0.296239342450332   0.294931534024539   1.0
H11   H   0.197315249231688   0.079165410730747   0.301001103028422   1.0
C12   C   0.699578573923493   0.123989483596687   0.505524556194693   1.0
C13   C   0.948352010533584   0.059879020603072   0.297436013014915   1.0
C14   C   0.788082156527562   0.258156531389490   0.363839614779127   1.0
Sn15   Sn   0.835326141702065   0.609155604227237   0.892814876541182   1.0
N16   N   0.819361249640242   0.914399744706851   0.427911938588957   1.0




# HOIP entry ID:                    0783
# Khazana ID:                       2633
# Organic cation source:            B. Zhou et al., Angew. Chem. Int. Ed. 50, 11441 (2011)
# Label:                            Azetidinium Tin Bromide
# Material class:                   Hybrid organic-inorganic perovskite ( MC_ino )
# Geometry class:                   Bulk crystalline materials ( GC_cry )
# Organic cation chemical formula:  C3H6N2
# Number of atom types:             5
# Total number of atoms:            16
# Atom types:                       C H N  Sn Br
# Number of each atom:              3 8 1  1 3
# Bandgap, HSE06 (eV):              3.3438
# Bandgap, GGA (eV):                2.48
# Kpoint for VBM:                   0.2368, 0.5, 0.2368
# Kpoint for CBM:                   0, -0.4286, 0.375
# Dielectric constant, electronic:  3.9721
# Dielectric constant, ionic:       14.0461
# Dielectric constant, total:       18.0182
# Refractive index:                 1.993
# Atomization energy (eV/atom):     -4.4275
# Relative energy1 (eV/atom):       -0.002
# Relative energy2 (eV/atom):       0.1925
# Volume of the unit cell (A^3):    231.98
# Density (g/cm^3):                 2.973
# Tool:                             VASP
# Pseudopotential:                  PAW
# Note:                             ENCUT=400eV, k-spacing_relax=0.20/Angstrom, k-spacing_bandgap=0.15/Angstrom
# Created by:                       C.Kim, T.D.Huan, S.Krishnan, R. Ramprasad