data_1
_audit_creation_method   'Generated by vasp2cif'
_cell_length_a    8.09510731427
_cell_length_b    6.42701550777
_cell_length_c    4.71458084233
_cell_angle_alpha    86.9483092408
_cell_angle_beta    86.6553958069
_cell_angle_gamma    83.815525113

_symmetry_space_group_name_H-M    'P 1'
loop_
_atom_site_label
_atom_site_type_symbol
_atom_site_fract_x
_atom_site_fract_y
_atom_site_fract_z
_atom_site_occupancy
Br1   Br   0.158311766069538   0.514554383725425   0.819363413981058   1.0
Br2   Br   0.863408518277787   0.053065057923099   0.805288302126606   1.0
Br3   Br   0.651728695179898   0.571294444105732   0.301351969774366   1.0
H4   H   0.432407652072499   0.860035160218821   0.924301535591631   1.0
H5   H   0.413420823095535   0.319127845709325   0.974973938170059   1.0
H6   H   0.590336713565762   0.150677751186777   0.957858537630493   1.0
H7   H   0.560544563487490   0.053746082984510   0.443305919290381   1.0
H8   H   0.409275594006843   0.279818495260507   0.468538872264013   1.0
H9   H   0.183428145606428   0.069076554258146   0.371181697496560   1.0
H10   H   0.323155393983413   0.836239925369490   0.427949208200168   1.0
H11   H   0.256990931238605   0.052633158701170   0.858395479841384   1.0
C12   C   0.445588503531141   0.133862814379377   0.364123096309776   1.0
C13   C   0.355939555106147   0.998332624352017   0.998850622374761   1.0
C14   C   0.307585544839874   0.990859282600788   0.320961603960974   1.0
Sn15   Sn   0.948218290313072   0.738506124354508   0.264271681036966   1.0
N16   N   0.468349309626049   0.173250294870393   0.040964121950921   1.0




# HOIP entry ID:                    0784
# Khazana ID:                       2634
# Organic cation source:            B. Zhou et al., Angew. Chem. Int. Ed. 50, 11441 (2011)
# Label:                            Azetidinium Tin Bromide
# Material class:                   Hybrid organic-inorganic perovskite ( MC_ino )
# Geometry class:                   Bulk crystalline materials ( GC_cry )
# Organic cation chemical formula:  C3H6N2
# Number of atom types:             5
# Total number of atoms:            16
# Atom types:                       C H N  Sn Br
# Number of each atom:              3 8 1  1 3
# Bandgap, HSE06 (eV):              3.3787
# Bandgap, GGA (eV):                2.5003
# Kpoint for VBM:                   0, 0.4167, 0.4375
# Kpoint for CBM:                   0, 0.5, 0
# Dielectric constant, electronic:  3.512
# Dielectric constant, ionic:       4.9401
# Dielectric constant, total:       8.4521
# Refractive index:                 1.874
# Atomization energy (eV/atom):     -4.4217
# Relative energy1 (eV/atom):       0.0038
# Relative energy2 (eV/atom):       0.1983
# Volume of the unit cell (A^3):    243.17
# Density (g/cm^3):                 2.8362
# Tool:                             VASP
# Pseudopotential:                  PAW
# Note:                             ENCUT=400eV, k-spacing_relax=0.20/Angstrom, k-spacing_bandgap=0.15/Angstrom
# Created by:                       C.Kim, T.D.Huan, S.Krishnan, R. Ramprasad