data_1
_audit_creation_method   'Generated by vasp2cif'
_cell_length_a    8.21521134587
_cell_length_b    6.28523673254
_cell_length_c    4.79850057711
_cell_angle_alpha    85.58676755
_cell_angle_beta    89.1891287816
_cell_angle_gamma    79.813943349

_symmetry_space_group_name_H-M    'P 1'
loop_
_atom_site_label
_atom_site_type_symbol
_atom_site_fract_x
_atom_site_fract_y
_atom_site_fract_z
_atom_site_occupancy
Br1   Br   0.927989906560207   0.189894673580056   0.760580023808785   1.0
Br2   Br   0.135097454485788   0.689866337909052   0.347235053328774   1.0
Br3   Br   0.622421451911393   0.760511966043829   0.697946823220086   1.0
H4   H   0.325152296534945   0.104953177032414   0.715659338845434   1.0
H5   H   0.522017026943679   0.433592593821579   0.807470998415077   1.0
H6   H   0.597844012331372   0.165492202195878   0.810154885005787   1.0
H7   H   0.605571254545019   0.151114552359616   0.297716487888834   1.0
H8   H   0.466035835201218   0.409779144467677   0.287863723096208   1.0
H9   H   0.232946117240537   0.199794084304692   0.301963970434009   1.0
H10   H   0.370803259782050   0.964331029941746   0.207786181599907   1.0
H11   H   0.243570690364081   0.373117029181884   0.817099365166825   1.0
C12   C   0.493705855814739   0.249773943720072   0.206577295611311   1.0
C13   C   0.330446169349372   0.223513009087632   0.866188437722727   1.0
C14   C   0.340317296084834   0.140361474301592   0.177171747668495   1.0
Sn15   Sn   0.858672576916305   0.516550264630638   0.307608769811864   1.0
N16   N   0.505828795934463   0.280344517421682   0.886326898376005   1.0




# HOIP entry ID:                    0785
# Khazana ID:                       2635
# Organic cation source:            B. Zhou et al., Angew. Chem. Int. Ed. 50, 11441 (2011)
# Label:                            Azetidinium Tin Bromide
# Material class:                   Hybrid organic-inorganic perovskite ( MC_ino )
# Geometry class:                   Bulk crystalline materials ( GC_cry )
# Organic cation chemical formula:  C3H6N2
# Number of atom types:             5
# Total number of atoms:            16
# Atom types:                       C H N  Sn Br
# Number of each atom:              3 8 1  1 3
# Bandgap, HSE06 (eV):              3.4867
# Bandgap, GGA (eV):                2.5807
# Kpoint for VBM:                   0.3158, 0.3158, 0.3158
# Kpoint for CBM:                   0, 0.5, 0
# Dielectric constant, electronic:  3.4699
# Dielectric constant, ionic:       3.7336
# Dielectric constant, total:       7.2035
# Refractive index:                 1.8628
# Atomization energy (eV/atom):     -4.4155
# Relative energy1 (eV/atom):       0.0099
# Relative energy2 (eV/atom):       0.2045
# Volume of the unit cell (A^3):    243.14
# Density (g/cm^3):                 2.8366
# Tool:                             VASP
# Pseudopotential:                  PAW
# Note:                             ENCUT=400eV, k-spacing_relax=0.20/Angstrom, k-spacing_bandgap=0.15/Angstrom
# Created by:                       C.Kim, T.D.Huan, S.Krishnan, R. Ramprasad