data_1
_audit_creation_method   'Generated by vasp2cif'
_cell_length_a    6.05367046346
_cell_length_b    6.71695090124
_cell_length_c    6.08423130838
_cell_angle_alpha    89.7959839031
_cell_angle_beta    79.8811415214
_cell_angle_gamma    90.1926206397

_symmetry_space_group_name_H-M    'P 1'
loop_
_atom_site_label
_atom_site_type_symbol
_atom_site_fract_x
_atom_site_fract_y
_atom_site_fract_z
_atom_site_occupancy
Br1   Br   0.364858570703952   0.741634266613168   0.075564412007104   1.0
Br2   Br   0.846621875615895   0.739213088757808   0.566431429904284   1.0
Br3   Br   0.871603822083522   0.171188346027243   0.082541339131659   1.0
H4   H   0.558015230516375   0.046258031480420   0.790093929903726   1.0
H5   H   0.317818708005177   0.895288629075857   0.527066141645022   1.0
H6   H   0.263651545185702   0.522639613641687   0.490910351466432   1.0
H7   H   0.547536904374780   0.425207659369178   0.790001043442246   1.0
H8   H   0.141645926007662   0.188919496381914   0.351826045119843   1.0
C9   C   0.457984980517267   0.333830827312063   0.690872021617018   1.0
C10   C   0.340976155926470   0.050430443398867   0.558160382359425   1.0
C11   C   0.318730139071320   0.381777363595461   0.544791048671897   1.0
Sn12   Sn   0.890420571401592   0.746584690249904   0.099325182772368   1.0
N13   N   0.468697576926665   0.128102065407845   0.695596099975873   1.0
N14   N   0.248297993663648   0.203185478688567   0.464470571983121   1.0




# HOIP entry ID:                    0786
# Khazana ID:                       2636
# Organic cation source:            B.Saparov et al., Chem. Rev. 116, 4558 (2016)
# Label:                            Imidazolium Tin Bromide
# Material class:                   Hybrid organic-inorganic perovskite ( MC_ino )
# Geometry class:                   Bulk crystalline materials ( GC_cry )
# Organic cation chemical formula:  C3H5N2
# Number of atom types:             5
# Total number of atoms:            14
# Atom types:                       C H N  Sn Br
# Number of each atom:              3 5 2  1 3
# Bandgap, HSE06 (eV):              2.4152
# Bandgap, GGA (eV):                1.7216
# Kpoint for VBM:                   0.5, 0.5, 0.5
# Kpoint for CBM:                   0.5, 0.5, 0.5
# Dielectric constant, electronic:  4.1324
# Dielectric constant, ionic:       48.7594
# Dielectric constant, total:       52.8917
# Refractive index:                 2.0328
# Atomization energy (eV/atom):     -4.8905
# Relative energy1 (eV/atom):       0.1856
# Relative energy2 (eV/atom):       0.4079
# Volume of the unit cell (A^3):    243.55
# Density (g/cm^3):                 2.9067
# Tool:                             VASP
# Pseudopotential:                  PAW
# Note:                             ENCUT=400eV, k-spacing_relax=0.20/Angstrom, k-spacing_bandgap=0.15/Angstrom
# Created by:                       C.Kim, T.D.Huan, S.Krishnan, R. Ramprasad