data_1
_audit_creation_method   'Generated by vasp2cif'
_cell_length_a    6.15861572494
_cell_length_b    6.4227096619
_cell_length_c    6.14853992574
_cell_angle_alpha    96.9660282598
_cell_angle_beta    80.0518000956
_cell_angle_gamma    83.9222940359

_symmetry_space_group_name_H-M    'P 1'
loop_
_atom_site_label
_atom_site_type_symbol
_atom_site_fract_x
_atom_site_fract_y
_atom_site_fract_z
_atom_site_occupancy
Br1   Br   0.706973715296863   0.750612773530235   0.920748041656602   1.0
Br2   Br   0.137020285666372   0.792616420269007   0.341019922866874   1.0
Br3   Br   0.131774003547952   0.213399504222782   0.902802152138674   1.0
H4   H   0.410600991226124   0.043589504676142   0.324278475605711   1.0
H5   H   0.653761378707159   0.997295669687868   0.617780650502249   1.0
H6   H   0.765803372132742   0.572959697684828   0.370455998965841   1.0
H7   H   0.460135741723145   0.383123793659391   0.152604159400174   1.0
H8   H   0.859830571545772   0.317830304747395   0.643400760858879   1.0
C9   C   0.545461895487248   0.335714346020934   0.280380516877424   1.0
C10   C   0.642115926401659   0.125779885127963   0.521168466120776   1.0
C11   C   0.693817079308502   0.429238281098458   0.388428408024289   1.0
Sn12   Sn   0.166469183180626   0.767701447731554   0.868524969394059   1.0
N13   N   0.516020446241211   0.148217479734192   0.366202188059893   1.0
N14   N   0.751395409534719   0.295390891809289   0.536945289528622   1.0




# HOIP entry ID:                    0787
# Khazana ID:                       2637
# Organic cation source:            B.Saparov et al., Chem. Rev. 116, 4558 (2016)
# Label:                            Imidazolium Tin Bromide
# Material class:                   Hybrid organic-inorganic perovskite ( MC_ino )
# Geometry class:                   Bulk crystalline materials ( GC_cry )
# Organic cation chemical formula:  C3H5N2
# Number of atom types:             5
# Total number of atoms:            14
# Atom types:                       C H N  Sn Br
# Number of each atom:              3 5 2  1 3
# Bandgap, HSE06 (eV):              2.9569
# Bandgap, GGA (eV):                2.2517
# Kpoint for VBM:                   0.5, 0.5, 0.5
# Kpoint for CBM:                   0.4167, -0.4167, 0.4286
# Dielectric constant, electronic:  4.1389
# Dielectric constant, ionic:       7.1567
# Dielectric constant, total:       11.2956
# Refractive index:                 2.0344
# Atomization energy (eV/atom):     -4.8933
# Relative energy1 (eV/atom):       0.1829
# Relative energy2 (eV/atom):       0.4052
# Volume of the unit cell (A^3):    235.77
# Density (g/cm^3):                 3.0026
# Tool:                             VASP
# Pseudopotential:                  PAW
# Note:                             ENCUT=400eV, k-spacing_relax=0.20/Angstrom, k-spacing_bandgap=0.15/Angstrom
# Created by:                       C.Kim, T.D.Huan, S.Krishnan, R. Ramprasad