data_1
_audit_creation_method   'Generated by vasp2cif'
_cell_length_a    6.0646233851
_cell_length_b    4.20163517458
_cell_length_c    9.35237184923
_cell_angle_alpha    88.2525508103
_cell_angle_beta    88.3426761608
_cell_angle_gamma    79.1394727919

_symmetry_space_group_name_H-M    'P 1'
loop_
_atom_site_label
_atom_site_type_symbol
_atom_site_fract_x
_atom_site_fract_y
_atom_site_fract_z
_atom_site_occupancy
Br1   Br   0.951535936816335   0.953590216044773   0.783457377552828   1.0
Br2   Br   0.500500670156640   0.591929955333093   0.043534254734560   1.0
Br3   Br   0.948422550548379   0.926269693749944   0.265294220585332   1.0
H4   H   0.538685513593180   0.533869081152538   0.303626954717224   1.0
H5   H   0.212920104756343   0.248685794925514   0.660793699790169   1.0
H6   H   0.513172440444521   0.535322577527587   0.758338474404802   1.0
H7   H   0.740536979254671   0.721534995438610   0.515993355120550   1.0
H8   H   0.223461874562531   0.242310376332746   0.387592211227592   1.0
C9   C   0.490445892847021   0.504417229587645   0.646216411904120   1.0
C10   C   0.601426665942178   0.596445403666600   0.527326146147281   1.0
C11   C   0.331473801953969   0.348072595126716   0.454161462791028   1.0
Sn12   Sn   0.973145671892048   0.421270722087677   0.025661439280988   1.0
N13   N   0.324103459551793   0.350401810315169   0.597894799422377   1.0
N14   N   0.499098437680416   0.497269548711387   0.409559192321119   1.0




# HOIP entry ID:                    0789
# Khazana ID:                       2639
# Organic cation source:            B.Saparov et al., Chem. Rev. 116, 4558 (2016)
# Label:                            Imidazolium Tin Bromide
# Material class:                   Hybrid organic-inorganic perovskite ( MC_ino )
# Geometry class:                   Bulk crystalline materials ( GC_cry )
# Organic cation chemical formula:  C3H5N2
# Number of atom types:             5
# Total number of atoms:            14
# Atom types:                       C H N  Sn Br
# Number of each atom:              3 5 2  1 3
# Bandgap, HSE06 (eV):              3.5053
# Bandgap, GGA (eV):                2.7198
# Kpoint for VBM:                   0.5, 0.1, 0.5
# Kpoint for CBM:                   0.5, 0, 0
# Dielectric constant, electronic:  3.9326
# Dielectric constant, ionic:       7.9084
# Dielectric constant, total:       11.8409
# Refractive index:                 1.9831
# Atomization energy (eV/atom):     -4.8927
# Relative energy1 (eV/atom):       0.1834
# Relative energy2 (eV/atom):       0.4057
# Volume of the unit cell (A^3):    233.87
# Density (g/cm^3):                 3.027
# Tool:                             VASP
# Pseudopotential:                  PAW
# Note:                             ENCUT=400eV, k-spacing_relax=0.20/Angstrom, k-spacing_bandgap=0.15/Angstrom
# Created by:                       C.Kim, T.D.Huan, S.Krishnan, R. Ramprasad