data_1
_audit_creation_method   'Generated by vasp2cif'
_cell_length_a    8.95879292831
_cell_length_b    4.24806472443
_cell_length_c    6.18560410665
_cell_angle_alpha    101.007860046
_cell_angle_beta    94.1745891097
_cell_angle_gamma    90.3066156618

_symmetry_space_group_name_H-M    'P 1'
loop_
_atom_site_label
_atom_site_type_symbol
_atom_site_fract_x
_atom_site_fract_y
_atom_site_fract_z
_atom_site_occupancy
Br1   Br   0.746364698005586   0.132372579418401   0.001238324948155   1.0
Br2   Br   0.004608704704083   0.825290808938547   0.465022387439056   1.0
Br3   Br   0.248118332833215   0.146375757772191   0.034772254021163   1.0
H4   H   0.291689275363204   0.838973831278416   0.391095864955375   1.0
H5   H   0.557174740940788   0.343212623637903   0.772012576622423   1.0
H6   H   0.731212265969077   0.512649318723732   0.505485283264868   1.0
H7   H   0.553504443597525   0.856828921824771   0.248777148011030   1.0
H8   H   0.286903594384000   0.525892326655658   0.703630129136940   1.0
C9   C   0.614328534611964   0.569287007345707   0.507110240779284   1.0
C10   C   0.527177013368352   0.738727682545303   0.381020292220704   1.0
C11   C   0.382326610240924   0.573622405697648   0.618645483831685   1.0
Sn12   Sn   0.992154183682615   0.640339357800627   0.006346119795623   1.0
N13   N   0.521688498957232   0.469221659042944   0.652841332282442   1.0
N14   N   0.384379103341530   0.740075719318206   0.455232562691322   1.0




# HOIP entry ID:                    0790
# Khazana ID:                       2640
# Organic cation source:            B.Saparov et al., Chem. Rev. 116, 4558 (2016)
# Label:                            Imidazolium Tin Bromide
# Material class:                   Hybrid organic-inorganic perovskite ( MC_ino )
# Geometry class:                   Bulk crystalline materials ( GC_cry )
# Organic cation chemical formula:  C3H5N2
# Number of atom types:             5
# Total number of atoms:            14
# Atom types:                       C H N  Sn Br
# Number of each atom:              3 5 2  1 3
# Bandgap, HSE06 (eV):              3.569
# Bandgap, GGA (eV):                2.7721
# Kpoint for VBM:                   0.5, 0.1667, 0.5
# Kpoint for CBM:                   0, 0.0556, 0.5
# Dielectric constant, electronic:  3.9278
# Dielectric constant, ionic:       12.4078
# Dielectric constant, total:       16.3356
# Refractive index:                 1.9819
# Atomization energy (eV/atom):     -4.8919
# Relative energy1 (eV/atom):       0.1843
# Relative energy2 (eV/atom):       0.4065
# Volume of the unit cell (A^3):    230.42
# Density (g/cm^3):                 3.0723
# Tool:                             VASP
# Pseudopotential:                  PAW
# Note:                             ENCUT=400eV, k-spacing_relax=0.20/Angstrom, k-spacing_bandgap=0.15/Angstrom
# Created by:                       C.Kim, T.D.Huan, S.Krishnan, R. Ramprasad