data_1
_audit_creation_method   'Generated by vasp2cif'
_cell_length_a    6.24219168075
_cell_length_b    4.27602014193
_cell_length_c    9.62653655041
_cell_angle_alpha    113.361416904
_cell_angle_beta    97.4668967786
_cell_angle_gamma    78.9449858445

_symmetry_space_group_name_H-M    'P 1'
loop_
_atom_site_label
_atom_site_type_symbol
_atom_site_fract_x
_atom_site_fract_y
_atom_site_fract_z
_atom_site_occupancy
Br1   Br   0.996815904460703   0.162312643712703   0.739112601048035   1.0
Br2   Br   0.446227250755861   0.733996871720109   0.008216640971938   1.0
Br3   Br   0.992388963543952   0.605743707324933   0.238388047399809   1.0
H4   H   0.568594069595214   0.174858252811482   0.267135148974887   1.0
H5   H   0.268613414603948   0.414269019444838   0.656062378997532   1.0
H6   H   0.552698191825549   0.824009854121449   0.734159168663268   1.0
H7   H   0.766321633261086   0.652868536734537   0.470525524309970   1.0
H8   H   0.271242987096876   0.026382406069438   0.375847307839770   1.0
C9   C   0.529899089360988   0.636879299996416   0.621254774650076   1.0
C10   C   0.633296346365668   0.554292062928049   0.491853438576285   1.0
C11   C   0.376253789245574   0.217048071967234   0.436575719889191   1.0
Sn12   Sn   0.988961394987754   0.880458560859864   0.990023646446033   1.0
N13   N   0.372065644218928   0.423044626261984   0.584010965328943   1.0
N14   N   0.534551320677956   0.293116086047014   0.378794636904281   1.0




# HOIP entry ID:                    0792
# Khazana ID:                       2642
# Organic cation source:            B.Saparov et al., Chem. Rev. 116, 4558 (2016)
# Label:                            Imidazolium Tin Bromide
# Material class:                   Hybrid organic-inorganic perovskite ( MC_ino )
# Geometry class:                   Bulk crystalline materials ( GC_cry )
# Organic cation chemical formula:  C3H5N2
# Number of atom types:             5
# Total number of atoms:            14
# Atom types:                       C H N  Sn Br
# Number of each atom:              3 5 2  1 3
# Bandgap, HSE06 (eV):              3.5578
# Bandgap, GGA (eV):                2.7608
# Kpoint for VBM:                   0.5, 0.2, 0.3
# Kpoint for CBM:                   0.5, 0, 0.1
# Dielectric constant, electronic:  3.9147
# Dielectric constant, ionic:       9.3945
# Dielectric constant, total:       13.3092
# Refractive index:                 1.9786
# Atomization energy (eV/atom):     -4.8932
# Relative energy1 (eV/atom):       0.183
# Relative energy2 (eV/atom):       0.4052
# Volume of the unit cell (A^3):    231.09
# Density (g/cm^3):                 3.0634
# Tool:                             VASP
# Pseudopotential:                  PAW
# Note:                             ENCUT=400eV, k-spacing_relax=0.20/Angstrom, k-spacing_bandgap=0.15/Angstrom
# Created by:                       C.Kim, T.D.Huan, S.Krishnan, R. Ramprasad