data_1
_audit_creation_method   'Generated by vasp2cif'
_cell_length_a    6.4611706725
_cell_length_b    6.43081273374
_cell_length_c    6.70415225446
_cell_angle_alpha    82.6266013949
_cell_angle_beta    89.3006676737
_cell_angle_gamma    94.1333915211

_symmetry_space_group_name_H-M    'P 1'
loop_
_atom_site_label
_atom_site_type_symbol
_atom_site_fract_x
_atom_site_fract_y
_atom_site_fract_z
_atom_site_occupancy
C1   C   0.470101089356987   0.576494833475564   0.336961001103937   1.0
C2   C   0.550478694758205   0.417835329980150   0.210320353930840   1.0
H3   H   0.717150550416839   0.448718326833138   0.177250739374848   1.0
H4   H   0.469028462846779   0.429139787266308   0.067955821662096   1.0
H5   H   0.568368639511569   0.418402280137002   0.615160312294044   1.0
H6   H   0.535164510223289   0.674063754767538   0.624316324385141   1.0
H7   H   0.521501628784947   0.256783931159425   0.285949075263261   1.0
H8   H   0.495588809542248   0.738293065659057   0.263503730441279   1.0
H9   H   0.305741355582043   0.544008700316432   0.377819422392982   1.0
H10   H   0.743428768992850   0.605398410146634   0.508276535885599   1.0
I11   I   0.529717565065610   0.017170050788778   0.813482164481790   1.0
I12   I   0.066580400395232   0.500119431711205   0.819190424019325   1.0
I13   I   0.012515794908737   0.992291690324222   0.343434048542718   1.0
N14   N   0.586387610772412   0.567548728674005   0.534374065982320   1.0
Sn15   Sn   0.022956118842288   0.022321678760491   0.893025980239763   1.0




# HOIP entry ID:                    0793
# Khazana ID:                       2643
# Organic cation source:            B.Saparov et al., Chem. Rev. 116, 4558 (2016)
# Label:                            Ethylammonium Tin Iodide
# Material class:                   Hybrid organic-inorganic perovskite ( MC_ino )
# Geometry class:                   Bulk crystalline materials ( GC_cry )
# Organic cation chemical formula:  CH3CH2NH3
# Number of atom types:             5
# Total number of atoms:            15
# Atom types:                       C H N  Sn I
# Number of each atom:              2 8 1  1 3
# Bandgap, HSE06 (eV):              1.8796
# Bandgap, GGA (eV):                1.3461
# Kpoint for VBM:                   0.5, 0.5, 0.5
# Kpoint for CBM:                   0.5, 0.5, 0.5
# Dielectric constant, electronic:  5.2554
# Dielectric constant, ionic:       11.4046
# Dielectric constant, total:       16.66
# Refractive index:                 2.2925
# Atomization energy (eV/atom):     -4.1593
# Relative energy1 (eV/atom):       0.1474
# Relative energy2 (eV/atom):       0.2756
# Volume of the unit cell (A^3):    275.47
# Density (g/cm^3):                 3.2885
# Tool:                             VASP
# Pseudopotential:                  PAW
# Note:                             ENCUT=400eV, k-spacing_relax=0.20/Angstrom, k-spacing_bandgap=0.15/Angstrom
# Created by:                       C.Kim, T.D.Huan, S.Krishnan, R. Ramprasad