data_1
_audit_creation_method   'Generated by vasp2cif'
_cell_length_a    6.6085939659
_cell_length_b    6.37085244507
_cell_length_c    6.6531157106
_cell_angle_alpha    86.0451957517
_cell_angle_beta    81.1892339996
_cell_angle_gamma    87.1179192921

_symmetry_space_group_name_H-M    'P 1'
loop_
_atom_site_label
_atom_site_type_symbol
_atom_site_fract_x
_atom_site_fract_y
_atom_site_fract_z
_atom_site_occupancy
C1   C   0.570549688151601   0.771109290123952   0.306410926370049   1.0
C2   C   0.543260605384589   0.595727286145554   0.169924254450855   1.0
H3   H   0.690770167219561   0.538701717714794   0.090102326959674   1.0
H4   H   0.448678172954047   0.656525481284149   0.055955641362054   1.0
H5   H   0.635527610829605   0.560403983512948   0.555450178869386   1.0
H6   H   0.710361104383338   0.805898000774164   0.569223759532541   1.0
H7   H   0.465514930258578   0.462922601337802   0.257125406236732   1.0
H8   H   0.651568071155104   0.903423230754456   0.223363706687124   1.0
H9   H   0.425014562366002   0.829576093018844   0.388018241872317   1.0
H10   H   0.845670558561743   0.643350945725906   0.407911038012735   1.0
I11   I   0.590435393357758   0.161616498408044   0.777226926577036   1.0
I12   I   0.111243379142756   0.670447800603640   0.772349787479136   1.0
I13   I   0.055943967846567   0.175137877897811   0.292537993582101   1.0
N14   N   0.699144043154860   0.689803292405095   0.470259995812462   1.0
Sn15   Sn   0.119787745233907   0.185155900292891   0.835859816195793   1.0




# HOIP entry ID:                    0794
# Khazana ID:                       2644
# Organic cation source:            B.Saparov et al., Chem. Rev. 116, 4558 (2016)
# Label:                            Ethylammonium Tin Iodide
# Material class:                   Hybrid organic-inorganic perovskite ( MC_ino )
# Geometry class:                   Bulk crystalline materials ( GC_cry )
# Organic cation chemical formula:  CH3CH2NH3
# Number of atom types:             5
# Total number of atoms:            15
# Atom types:                       C H N  Sn I
# Number of each atom:              2 8 1  1 3
# Bandgap, HSE06 (eV):              1.844
# Bandgap, GGA (eV):                1.2713
# Kpoint for VBM:                   0.5, 0.5, 0.5
# Kpoint for CBM:                   0.5, 0.5, 0.4211
# Dielectric constant, electronic:  5.2446
# Dielectric constant, ionic:       9.988
# Dielectric constant, total:       15.2326
# Refractive index:                 2.2901
# Atomization energy (eV/atom):     -4.1578
# Relative energy1 (eV/atom):       0.1489
# Relative energy2 (eV/atom):       0.2771
# Volume of the unit cell (A^3):    275.92
# Density (g/cm^3):                 3.2831
# Tool:                             VASP
# Pseudopotential:                  PAW
# Note:                             ENCUT=400eV, k-spacing_relax=0.20/Angstrom, k-spacing_bandgap=0.15/Angstrom
# Created by:                       C.Kim, T.D.Huan, S.Krishnan, R. Ramprasad