data_1
_audit_creation_method   'Generated by vasp2cif'
_cell_length_a    6.59552477877
_cell_length_b    4.50175319909
_cell_length_c    9.31022049239
_cell_angle_alpha    98.6913324771
_cell_angle_beta    90.020451235
_cell_angle_gamma    96.8877314672

_symmetry_space_group_name_H-M    'P 1'
loop_
_atom_site_label
_atom_site_type_symbol
_atom_site_fract_x
_atom_site_fract_y
_atom_site_fract_z
_atom_site_occupancy
C1   C   0.570449996724534   0.726570992223081   0.419668546042864   1.0
C2   C   0.573568901827599   0.551462439347276   0.547175993217358   1.0
H3   H   0.714493039140550   0.445688554807276   0.550118436915554   1.0
H4   H   0.567045055374997   0.707104262297733   0.648492480168038   1.0
H5   H   0.712288418777085   0.408193070075150   0.272037473498820   1.0
H6   H   0.578497727071117   0.627254695430096   0.187631687130711   1.0
H7   H   0.429301718364236   0.830405725021208   0.414688253807554   1.0
H8   H   0.441524823652507   0.377798232814221   0.542640190688765   1.0
H9   H   0.702368951523589   0.899288147505636   0.422398680510170   1.0
H10   H   0.453285164802772   0.352004640403017   0.264337438364848   1.0
I11   I   0.533186407824630   0.860929648745426   0.963331474697071   1.0
I12   I   0.058483795800115   0.206911393470271   0.229980134739634   1.0
I13   I   0.068357541596654   0.073640725674174   0.690641152604563   1.0
N14   N   0.580274207339961   0.514015050405533   0.277307627943486   1.0
Sn15   Sn   0.070414250179681   0.673442421779903   0.937720429670577   1.0




# HOIP entry ID:                    0795
# Khazana ID:                       2645
# Organic cation source:            B.Saparov et al., Chem. Rev. 116, 4558 (2016)
# Label:                            Ethylammonium Tin Iodide
# Material class:                   Hybrid organic-inorganic perovskite ( MC_ino )
# Geometry class:                   Bulk crystalline materials ( GC_cry )
# Organic cation chemical formula:  CH3CH2NH3
# Number of atom types:             5
# Total number of atoms:            15
# Atom types:                       C H N  Sn I
# Number of each atom:              2 8 1  1 3
# Bandgap, HSE06 (eV):              2.8209
# Bandgap, GGA (eV):                2.0867
# Kpoint for VBM:                   0, 0.0556, 0.5
# Kpoint for CBM:                   0.5, 0.0556, 0
# Dielectric constant, electronic:  4.4447
# Dielectric constant, ionic:       7.2254
# Dielectric constant, total:       11.6701
# Refractive index:                 2.1083
# Atomization energy (eV/atom):     -4.154
# Relative energy1 (eV/atom):       0.1527
# Relative energy2 (eV/atom):       0.2809
# Volume of the unit cell (A^3):    271.24
# Density (g/cm^3):                 3.3397
# Tool:                             VASP
# Pseudopotential:                  PAW
# Note:                             ENCUT=400eV, k-spacing_relax=0.20/Angstrom, k-spacing_bandgap=0.15/Angstrom
# Created by:                       C.Kim, T.D.Huan, S.Krishnan, R. Ramprasad