data_1
_audit_creation_method   'Generated by vasp2cif'
_cell_length_a    8.93278430985
_cell_length_b    4.61929230014
_cell_length_c    6.62480147374
_cell_angle_alpha    81.0068745851
_cell_angle_beta    91.9791743061
_cell_angle_gamma    88.0076381381

_symmetry_space_group_name_H-M    'P 1'
loop_
_atom_site_label
_atom_site_type_symbol
_atom_site_fract_x
_atom_site_fract_y
_atom_site_fract_z
_atom_site_occupancy
C1   C   0.466786567190510   0.541210828834160   0.423722435604461   1.0
C2   C   0.417709993034116   0.706141812487992   0.594069638883560   1.0
H3   H   0.397293928682288   0.555291929998077   0.733912123181277   1.0
H4   H   0.503124212236663   0.855547874273633   0.632121427873997   1.0
H5   H   0.625234028303339   0.259401603754604   0.619099809491821   1.0
H6   H   0.704201728411498   0.541608755634279   0.485174532603104   1.0
H7   H   0.389876647962041   0.369938712696381   0.399161188436267   1.0
H8   H   0.313533391208132   0.832935386767367   0.545610307834266   1.0
H9   H   0.477319640936905   0.685954118814664   0.278465763563887   1.0
H10   H   0.651774022091558   0.266653378776965   0.366044356858175   1.0
I11   I   0.957841082894575   0.776417688631398   0.548775669367927   1.0
I12   I   0.695864261519780   0.114907362091301   0.012078593162713   1.0
I13   I   0.227445437005962   0.094418544544581   0.020597455807525   1.0
N14   N   0.620863983995655   0.390958838410867   0.476826581631656   1.0
Sn15   Sn   0.979041074526990   0.617383164283737   0.013190115699288   1.0




# HOIP entry ID:                    0796
# Khazana ID:                       2646
# Organic cation source:            B.Saparov et al., Chem. Rev. 116, 4558 (2016)
# Label:                            Ethylammonium Tin Iodide
# Material class:                   Hybrid organic-inorganic perovskite ( MC_ino )
# Geometry class:                   Bulk crystalline materials ( GC_cry )
# Organic cation chemical formula:  CH3CH2NH3
# Number of atom types:             5
# Total number of atoms:            15
# Atom types:                       C H N  Sn I
# Number of each atom:              2 8 1  1 3
# Bandgap, HSE06 (eV):              2.9097
# Bandgap, GGA (eV):                2.1686
# Kpoint for VBM:                   0.5, 0.0556, 0.1667
# Kpoint for CBM:                   0, 0.0556, 0.5
# Dielectric constant, electronic:  4.4994
# Dielectric constant, ionic:       7.9801
# Dielectric constant, total:       12.4795
# Refractive index:                 2.1212
# Atomization energy (eV/atom):     -4.1551
# Relative energy1 (eV/atom):       0.1516
# Relative energy2 (eV/atom):       0.2798
# Volume of the unit cell (A^3):    269.62
# Density (g/cm^3):                 3.3598
# Tool:                             VASP
# Pseudopotential:                  PAW
# Note:                             ENCUT=400eV, k-spacing_relax=0.20/Angstrom, k-spacing_bandgap=0.15/Angstrom
# Created by:                       C.Kim, T.D.Huan, S.Krishnan, R. Ramprasad