data_1
_audit_creation_method   'Generated by vasp2cif'
_cell_length_a    6.67447449331
_cell_length_b    4.65978201126
_cell_length_c    8.86802701735
_cell_angle_alpha    94.3596432913
_cell_angle_beta    96.5061202278
_cell_angle_gamma    94.7990405546

_symmetry_space_group_name_H-M    'P 1'
loop_
_atom_site_label
_atom_site_type_symbol
_atom_site_fract_x
_atom_site_fract_y
_atom_site_fract_z
_atom_site_occupancy
C1   C   0.411968992720048   0.819433082217856   0.607612124059465   1.0
C2   C   0.558351160023626   0.613548414433218   0.551425220397476   1.0
H3   H   0.478873869434324   0.438236651094236   0.472129204327778   1.0
H4   H   0.666781211638003   0.733118275908311   0.490502633863308   1.0
H5   H   0.182100653577273   0.489943248316358   0.634750375494136   1.0
H6   H   0.160526655196890   0.799986916328635   0.736958589402406   1.0
H7   H   0.490664885015519   0.999081597815241   0.683859210399980   1.0
H8   H   0.643415694253740   0.522441124329340   0.646516944537403   1.0
H9   H   0.320242085512667   0.903303744505301   0.513881344055378   1.0
H10   H   0.338902615329729   0.592582776070209   0.797492843746845   1.0
I11   I   0.472842284203566   0.596376593628314   0.093751011128404   1.0
I12   I   0.915832962911701   0.132445031125599   0.852869488737120   1.0
I13   I   0.965760086327492   0.212654008504920   0.381505661073341   1.0
N14   N   0.264121419958300   0.663779339847800   0.699824565793897   1.0
Sn15   Sn   0.932215423897162   0.674599195874563   0.121440782982987   1.0




# HOIP entry ID:                    0797
# Khazana ID:                       2647
# Organic cation source:            B.Saparov et al., Chem. Rev. 116, 4558 (2016)
# Label:                            Ethylammonium Tin Iodide
# Material class:                   Hybrid organic-inorganic perovskite ( MC_ino )
# Geometry class:                   Bulk crystalline materials ( GC_cry )
# Organic cation chemical formula:  CH3CH2NH3
# Number of atom types:             5
# Total number of atoms:            15
# Atom types:                       C H N  Sn I
# Number of each atom:              2 8 1  1 3
# Bandgap, HSE06 (eV):              2.7178
# Bandgap, GGA (eV):                2.0272
# Kpoint for VBM:                   0.5, 0.1667, 0.5
# Kpoint for CBM:                   0.5, 0.5, 0
# Dielectric constant, electronic:  4.6015
# Dielectric constant, ionic:       9.7678
# Dielectric constant, total:       14.3693
# Refractive index:                 2.1451
# Atomization energy (eV/atom):     -4.1553
# Relative energy1 (eV/atom):       0.1514
# Relative energy2 (eV/atom):       0.2796
# Volume of the unit cell (A^3):    272.05
# Density (g/cm^3):                 3.3298
# Tool:                             VASP
# Pseudopotential:                  PAW
# Note:                             ENCUT=400eV, k-spacing_relax=0.20/Angstrom, k-spacing_bandgap=0.15/Angstrom
# Created by:                       C.Kim, T.D.Huan, S.Krishnan, R. Ramprasad