data_1
_audit_creation_method   'Generated by vasp2cif'
_cell_length_a    6.63171611116
_cell_length_b    4.6254442795
_cell_length_c    9.89448506263
_cell_angle_alpha    64.3716744247
_cell_angle_beta    95.696261931
_cell_angle_gamma    98.9815939599

_symmetry_space_group_name_H-M    'P 1'
loop_
_atom_site_label
_atom_site_type_symbol
_atom_site_fract_x
_atom_site_fract_y
_atom_site_fract_z
_atom_site_occupancy
C1   C   0.340288016393683   0.503962813368862   0.592350069989603   1.0
C2   C   0.502370670380598   0.381269848842917   0.538684481835678   1.0
H3   H   0.450432580326093   0.372439006486347   0.432048936704532   1.0
H4   H   0.647147725384450   0.540453227930843   0.521171355106772   1.0
H5   H   0.406145870281590   0.254703968756421   0.828597111007802   1.0
H6   H   0.294699688054541   0.585638188422782   0.782328788796029   1.0
H7   H   0.321403480781755   0.755060226041519   0.518083608656482   1.0
H8   H   0.532059093582573   0.139098005763792   0.620135879930240   1.0
H9   H   0.191603701152615   0.357712485113119   0.603118075531143   1.0
H10   H   0.545076407982268   0.611620453410982   0.750883521032907   1.0
I11   I   0.466253941302796   0.762704087054998   0.081061044076333   1.0
I12   I   0.933633854564582   0.688220681425367   0.820370878930857   1.0
I13   I   0.934220300514923   0.176712633520489   0.353190733147670   1.0
N14   N   0.400317228912923   0.490671248726613   0.747453203270729   1.0
Sn15   Sn   0.930167440384603   0.895503125135036   0.104482311983210   1.0




# HOIP entry ID:                    0798
# Khazana ID:                       2648
# Organic cation source:            B.Saparov et al., Chem. Rev. 116, 4558 (2016)
# Label:                            Ethylammonium Tin Iodide
# Material class:                   Hybrid organic-inorganic perovskite ( MC_ino )
# Geometry class:                   Bulk crystalline materials ( GC_cry )
# Organic cation chemical formula:  CH3CH2NH3
# Number of atom types:             5
# Total number of atoms:            15
# Atom types:                       C H N  Sn I
# Number of each atom:              2 8 1  1 3
# Bandgap, HSE06 (eV):              2.8686
# Bandgap, GGA (eV):                2.1578
# Kpoint for VBM:                   0.0833, -0.1111, 0.4
# Kpoint for CBM:                   0.5, 0.0556, 0.1
# Dielectric constant, electronic:  4.4886
# Dielectric constant, ionic:       8.6389
# Dielectric constant, total:       13.1276
# Refractive index:                 2.1186
# Atomization energy (eV/atom):     -4.1552
# Relative energy1 (eV/atom):       0.1515
# Relative energy2 (eV/atom):       0.2797
# Volume of the unit cell (A^3):    270.12
# Density (g/cm^3):                 3.3536
# Tool:                             VASP
# Pseudopotential:                  PAW
# Note:                             ENCUT=400eV, k-spacing_relax=0.20/Angstrom, k-spacing_bandgap=0.15/Angstrom
# Created by:                       C.Kim, T.D.Huan, S.Krishnan, R. Ramprasad