data_1
_audit_creation_method   'Generated by vasp2cif'
_cell_length_a    7.23802266454
_cell_length_b    4.78549732221
_cell_length_c    8.18838145801
_cell_angle_alpha    106.805123832
_cell_angle_beta    91.0034423796
_cell_angle_gamma    84.9039298637

_symmetry_space_group_name_H-M    'P 1'
loop_
_atom_site_label
_atom_site_type_symbol
_atom_site_fract_x
_atom_site_fract_y
_atom_site_fract_z
_atom_site_occupancy
C1   C   0.580886193543354   0.475078083382744   0.493284536092026   1.0
C2   C   0.659620874651382   0.771134339539855   0.559634686002424   1.0
H3   H   0.778728824227281   0.748075204270215   0.639844077518463   1.0
H4   H   0.709320715441169   0.844252308971703   0.454826190978522   1.0
H5   H   0.465166951552752   0.549162601831753   0.265300080488012   1.0
H6   H   0.316277654927355   0.645611368375337   0.429967626837540   1.0
H7   H   0.684638545021867   0.306638590201483   0.421902182833653   1.0
H8   H   0.557694276084517   0.936681270863264   0.636836944493567   1.0
H9   H   0.523435416757879   0.405193301574815   0.595943925997671   1.0
H10   H   0.365867094743640   0.292852475609095   0.324140644619734   1.0
I11   I   0.478370966307019   0.799995620501848   0.010641126523982   1.0
I12   I   0.971544040591865   0.434822087548241   0.167880431170552   1.0
I13   I   0.123216987370189   0.146131321730809   0.608194145633369   1.0
N14   N   0.422152428440905   0.490772392909460   0.370440573733192   1.0
Sn15   Sn   0.075489030338916   0.805679032689380   0.908582827077248   1.0




# HOIP entry ID:                    0799
# Khazana ID:                       2649
# Organic cation source:            B.Saparov et al., Chem. Rev. 116, 4558 (2016)
# Label:                            Ethylammonium Tin Iodide
# Material class:                   Hybrid organic-inorganic perovskite ( MC_ino )
# Geometry class:                   Bulk crystalline materials ( GC_cry )
# Organic cation chemical formula:  CH3CH2NH3
# Number of atom types:             5
# Total number of atoms:            15
# Atom types:                       C H N  Sn I
# Number of each atom:              2 8 1  1 3
# Bandgap, HSE06 (eV):              2.9142
# Bandgap, GGA (eV):                2.1628
# Kpoint for VBM:                   0.1, -0.25, 0.1
# Kpoint for CBM:                   0.3, 0, 0.5
# Dielectric constant, electronic:  4.4076
# Dielectric constant, ionic:       16.578
# Dielectric constant, total:       20.9856
# Refractive index:                 2.0994
# Atomization energy (eV/atom):     -4.1545
# Relative energy1 (eV/atom):       0.1522
# Relative energy2 (eV/atom):       0.2804
# Volume of the unit cell (A^3):    270.43
# Density (g/cm^3):                 3.3497
# Tool:                             VASP
# Pseudopotential:                  PAW
# Note:                             ENCUT=400eV, k-spacing_relax=0.20/Angstrom, k-spacing_bandgap=0.15/Angstrom
# Created by:                       C.Kim, T.D.Huan, S.Krishnan, R. Ramprasad