data_1
_audit_creation_method   'Generated by vasp2cif'
_cell_length_a    6.26618364946
_cell_length_b    4.45620838941
_cell_length_c    9.81829875469
_cell_angle_alpha    90.8734833974
_cell_angle_beta    84.8081369249
_cell_angle_gamma    92.0305745495

_symmetry_space_group_name_H-M    'P 1'
loop_
_atom_site_label
_atom_site_type_symbol
_atom_site_fract_x
_atom_site_fract_y
_atom_site_fract_z
_atom_site_occupancy
C1   C   0.466470046173242   0.095595416331690   0.465026679899516   1.0
C2   C   0.633178338741445   0.105221156645506   0.568794919007459   1.0
H3   H   0.741319301462873   0.917213529863879   0.553671894333405   1.0
H4   H   0.730019010138591   0.314961061309781   0.562726182091936   1.0
H5   H   0.470118052963407   0.103957528799313   0.245513074768226   1.0
H6   H   0.678060384511930   0.928813261383901   0.300140255952407   1.0
H7   H   0.366217052704385   0.890008380467172   0.470597406103913   1.0
H8   H   0.552553196244077   0.090209997163953   0.671913890929616   1.0
H9   H   0.360670621889199   0.286066986708548   0.475717902609667   1.0
H10   H   0.675547162829716   0.297162899679599   0.304974752463544   1.0
I11   I   0.558971109473887   0.264137473254493   0.973824833792321   1.0
I12   I   0.044674367098061   0.632952855823845   0.247240438972099   1.0
I13   I   0.102366344085759   0.616495309594825   0.730819803257333   1.0
N14   N   0.576378904485487   0.106721988235016   0.320181088670744   1.0
Sn15   Sn   0.073746107198019   0.112632154738549   0.963726877147820   1.0




# HOIP entry ID:                    0800
# Khazana ID:                       2650
# Organic cation source:            B.Saparov et al., Chem. Rev. 116, 4558 (2016)
# Label:                            Ethylammonium Tin Iodide
# Material class:                   Hybrid organic-inorganic perovskite ( MC_ino )
# Geometry class:                   Bulk crystalline materials ( GC_cry )
# Organic cation chemical formula:  CH3CH2NH3
# Number of atom types:             5
# Total number of atoms:            15
# Atom types:                       C H N  Sn I
# Number of each atom:              2 8 1  1 3
# Bandgap, HSE06 (eV):              2.6625
# Bandgap, GGA (eV):                2.0774
# Kpoint for VBM:                   0.5, 0.1667, 0.5
# Kpoint for CBM:                   0.5, 0.0556, 0
# Dielectric constant, electronic:  4.725
# Dielectric constant, ionic:       12.3233
# Dielectric constant, total:       17.0483
# Refractive index:                 2.1737
# Atomization energy (eV/atom):     -4.1451
# Relative energy1 (eV/atom):       0.1616
# Relative energy2 (eV/atom):       0.2898
# Volume of the unit cell (A^3):    272.84
# Density (g/cm^3):                 3.3202
# Tool:                             VASP
# Pseudopotential:                  PAW
# Note:                             ENCUT=400eV, k-spacing_relax=0.20/Angstrom, k-spacing_bandgap=0.15/Angstrom
# Created by:                       C.Kim, T.D.Huan, S.Krishnan, R. Ramprasad