data_1
_audit_creation_method   'Generated by vasp2cif'
_cell_length_a    6.48879057841
_cell_length_b    4.72721011939
_cell_length_c    8.86593183115
_cell_angle_alpha    88.3247042432
_cell_angle_beta    87.3769858666
_cell_angle_gamma    78.1690842316

_symmetry_space_group_name_H-M    'P 1'
loop_
_atom_site_label
_atom_site_type_symbol
_atom_site_fract_x
_atom_site_fract_y
_atom_site_fract_z
_atom_site_occupancy
C1   C   0.449895109898369   0.530095001366582   0.507496380476989   1.0
C2   C   0.608221447128759   0.725057847129926   0.517877074878767   1.0
H3   H   0.768912162254265   0.609733217016192   0.490707005498040   1.0
H4   H   0.571434969413484   0.908278294164823   0.438885768313976   1.0
H5   H   0.593030092587965   0.313038582520551   0.309659697490905   1.0
H6   H   0.415763463436567   0.608746029032226   0.270800012180350   1.0
H7   H   0.489825491445210   0.335247940506500   0.578080009459279   1.0
H8   H   0.602103660746612   0.806262890456203   0.632451934812456   1.0
H9   H   0.289363144931575   0.641305853084651   0.537558846557716   1.0
H10   H   0.332004457853257   0.312950980042423   0.330947636189427   1.0
I11   I   0.549249005144622   0.794822873325568   0.988379821302358   1.0
I12   I   0.007495893982445   0.101882416010769   0.252717068296925   1.0
I13   I   0.017589815170495   0.133733466639943   0.720241168614207   1.0
N14   N   0.447066639121219   0.433073840151247   0.344930347477646   1.0
Sn15   Sn   0.020984646885212   0.606290768552447   0.966907228450927   1.0




# HOIP entry ID:                    0801
# Khazana ID:                       2651
# Organic cation source:            B.Saparov et al., Chem. Rev. 116, 4558 (2016)
# Label:                            Ethylammonium Tin Iodide
# Material class:                   Hybrid organic-inorganic perovskite ( MC_ino )
# Geometry class:                   Bulk crystalline materials ( GC_cry )
# Organic cation chemical formula:  CH3CH2NH3
# Number of atom types:             5
# Total number of atoms:            15
# Atom types:                       C H N  Sn I
# Number of each atom:              2 8 1  1 3
# Bandgap, HSE06 (eV):              2.9866
# Bandgap, GGA (eV):                2.2016
# Kpoint for VBM:                   0.1667, 0.0556, 0.5
# Kpoint for CBM:                   0.4167, 0, 0.375
# Dielectric constant, electronic:  4.5729
# Dielectric constant, ionic:       12.3629
# Dielectric constant, total:       16.9357
# Refractive index:                 2.1384
# Atomization energy (eV/atom):     -4.1528
# Relative energy1 (eV/atom):       0.1539
# Relative energy2 (eV/atom):       0.2821
# Volume of the unit cell (A^3):    265.84
# Density (g/cm^3):                 3.4076
# Tool:                             VASP
# Pseudopotential:                  PAW
# Note:                             ENCUT=400eV, k-spacing_relax=0.20/Angstrom, k-spacing_bandgap=0.15/Angstrom
# Created by:                       C.Kim, T.D.Huan, S.Krishnan, R. Ramprasad