data_1
_audit_creation_method   'Generated by vasp2cif'
_cell_length_a    9.39622662598
_cell_length_b    4.46593917603
_cell_length_c    6.2968208544
_cell_angle_alpha    88.1165876931
_cell_angle_beta    90.0338090162
_cell_angle_gamma    94.3760598378

_symmetry_space_group_name_H-M    'P 1'
loop_
_atom_site_label
_atom_site_type_symbol
_atom_site_fract_x
_atom_site_fract_y
_atom_site_fract_z
_atom_site_occupancy
C1   C   0.381234907447422   0.749142193768586   0.414955470879317   1.0
C2   C   0.496002634283741   0.526677358592367   0.417402365778400   1.0
H3   H   0.490981123428775   0.391917610381811   0.274943992850345   1.0
H4   H   0.600577556126817   0.651275162983273   0.419257799183508   1.0
H5   H   0.218340615477601   0.456676405136413   0.277104768594369   1.0
H6   H   0.152486200781218   0.731140737054284   0.407704334361169   1.0
H7   H   0.384317159705630   0.881664427219901   0.557589165710493   1.0
H8   H   0.487997734206161   0.378571848499681   0.559631070791916   1.0
H9   H   0.388211973078842   0.897006154105770   0.273383342675753   1.0
H10   H   0.214646058444963   0.444662460658096   0.544170004189650   1.0
I11   I   0.883768554609910   0.278801282323144   0.403654766133685   1.0
I12   I   0.171939197257294   0.077743924900158   0.910952095919717   1.0
I13   I   0.630931832550367   0.945506926546350   0.912343557059686   1.0
N14   N   0.232517447981847   0.585426178726878   0.410653219600580   1.0
Sn15   Sn   0.874227004619374   0.461127329103333   0.918804046271419   1.0




# HOIP entry ID:                    0802
# Khazana ID:                       2652
# Organic cation source:            B.Saparov et al., Chem. Rev. 116, 4558 (2016)
# Label:                            Ethylammonium Tin Iodide
# Material class:                   Hybrid organic-inorganic perovskite ( MC_ino )
# Geometry class:                   Bulk crystalline materials ( GC_cry )
# Organic cation chemical formula:  CH3CH2NH3
# Number of atom types:             5
# Total number of atoms:            15
# Atom types:                       C H N  Sn I
# Number of each atom:              2 8 1  1 3
# Bandgap, HSE06 (eV):              2.754
# Bandgap, GGA (eV):                2.0493
# Kpoint for VBM:                   0.5, 0.0556, 0
# Kpoint for CBM:                   0, 0.0556, 0.5
# Dielectric constant, electronic:  4.8377
# Dielectric constant, ionic:       13.4923
# Dielectric constant, total:       18.33
# Refractive index:                 2.1995
# Atomization energy (eV/atom):     -4.1453
# Relative energy1 (eV/atom):       0.1614
# Relative energy2 (eV/atom):       0.2896
# Volume of the unit cell (A^3):    263.32
# Density (g/cm^3):                 3.4402
# Tool:                             VASP
# Pseudopotential:                  PAW
# Note:                             ENCUT=400eV, k-spacing_relax=0.20/Angstrom, k-spacing_bandgap=0.15/Angstrom
# Created by:                       C.Kim, T.D.Huan, S.Krishnan, R. Ramprasad