data_1
_audit_creation_method   'Generated by vasp2cif'
_cell_length_a    11.722025747
_cell_length_b    4.88179545658
_cell_length_c    4.81947855045
_cell_angle_alpha    90.050282266
_cell_angle_beta    90.1658767101
_cell_angle_gamma    84.8785957628

_symmetry_space_group_name_H-M    'P 1'
loop_
_atom_site_label
_atom_site_type_symbol
_atom_site_fract_x
_atom_site_fract_y
_atom_site_fract_z
_atom_site_occupancy
C1   C   0.596279030979211   0.707003368367857   0.547986832541149   1.0
C2   C   0.522355593285297   0.466916510813611   0.523559980781194   1.0
H3   H   0.536122278008989   0.326536327898118   0.699749292369262   1.0
H4   H   0.432114322711335   0.545283570477622   0.521561631289821   1.0
H5   H   0.741999546226431   0.472074584523540   0.717291762608305   1.0
H6   H   0.773028456002471   0.767866947732507   0.573146628734463   1.0
H7   H   0.584164445187177   0.848332951743039   0.372938904468917   1.0
H8   H   0.540175083184209   0.352249849139923   0.330984354644912   1.0
H9   H   0.579855248843458   0.822939014313235   0.739656125184858   1.0
H10   H   0.746908959349355   0.498260809014475   0.373180599547489   1.0
I11   I   0.071827961157709   0.545548617073358   0.542795221083992   1.0
I12   I   0.801709783970402   0.086400552311467   0.051440633709333   1.0
I13   I   0.348871155508412   0.002359730851012   0.035120397211713   1.0
N14   N   0.722782259384807   0.606102711733698   0.552449050509487   1.0
Sn15   Sn   0.101475876200780   0.060774454006506   0.033438585315111   1.0




# HOIP entry ID:                    0803
# Khazana ID:                       2653
# Organic cation source:            B.Saparov et al., Chem. Rev. 116, 4558 (2016)
# Label:                            Ethylammonium Tin Iodide
# Material class:                   Hybrid organic-inorganic perovskite ( MC_ino )
# Geometry class:                   Bulk crystalline materials ( GC_cry )
# Organic cation chemical formula:  CH3CH2NH3
# Number of atom types:             5
# Total number of atoms:            15
# Atom types:                       C H N  Sn I
# Number of each atom:              2 8 1  1 3
# Bandgap, HSE06 (eV):              1.9267
# Bandgap, GGA (eV):                1.2871
# Kpoint for VBM:                   0.5, 0.5, 0
# Kpoint for CBM:                   0.5, 0, 0.5
# Dielectric constant, electronic:  4.8956
# Dielectric constant, ionic:       27.7165
# Dielectric constant, total:       32.6121
# Refractive index:                 2.2126
# Atomization energy (eV/atom):     -4.1437
# Relative energy1 (eV/atom):       0.163
# Relative energy2 (eV/atom):       0.2912
# Volume of the unit cell (A^3):    274.69
# Density (g/cm^3):                 3.2978
# Tool:                             VASP
# Pseudopotential:                  PAW
# Note:                             ENCUT=400eV, k-spacing_relax=0.20/Angstrom, k-spacing_bandgap=0.15/Angstrom
# Created by:                       C.Kim, T.D.Huan, S.Krishnan, R. Ramprasad