data_1
_audit_creation_method   'Generated by vasp2cif'
_cell_length_a    9.53122571162
_cell_length_b    4.71718057793
_cell_length_c    6.40711928186
_cell_angle_alpha    87.4463052225
_cell_angle_beta    98.3169505422
_cell_angle_gamma    107.667539019

_symmetry_space_group_name_H-M    'P 1'
loop_
_atom_site_label
_atom_site_type_symbol
_atom_site_fract_x
_atom_site_fract_y
_atom_site_fract_z
_atom_site_occupancy
C1   C   0.616435969178525   0.670737985486738   0.517902770580974   1.0
C2   C   0.482993480471592   0.589576321825689   0.638706398008232   1.0
H3   H   0.388142442441214   0.423076833242760   0.552652791180869   1.0
H4   H   0.510754557619329   0.504103230438325   0.795892704517883   1.0
H5   H   0.696513390264180   0.315380128385492   0.638341733724658   1.0
H6   H   0.758422335407197   0.454189155669411   0.411862052878739   1.0
H7   H   0.590722577183996   0.750009501755208   0.358406619576080   1.0
H8   H   0.449295570661256   0.787929542405919   0.658483683514788   1.0
H9   H   0.712889673411084   0.833145586963077   0.602544826617027   1.0
H10   H   0.581207609514315   0.239820386599646   0.403233286096672   1.0
I11   I   0.049323621365780   0.861969303684489   0.543439829480647   1.0
I12   I   0.810791212808127   0.203172045483434   0.023335933092923   1.0
I13   I   0.353383863583147   0.009375264869171   0.118654479674703   1.0
N14   N   0.666546544040180   0.399496740688278   0.491201287214203   1.0
Sn15   Sn   0.123267152050168   0.391147972502395   0.889661603841553   1.0




# HOIP entry ID:                    0804
# Khazana ID:                       2654
# Organic cation source:            B.Saparov et al., Chem. Rev. 116, 4558 (2016)
# Label:                            Ethylammonium Tin Iodide
# Material class:                   Hybrid organic-inorganic perovskite ( MC_ino )
# Geometry class:                   Bulk crystalline materials ( GC_cry )
# Organic cation chemical formula:  CH3CH2NH3
# Number of atom types:             5
# Total number of atoms:            15
# Atom types:                       C H N  Sn I
# Number of each atom:              2 8 1  1 3
# Bandgap, HSE06 (eV):              2.8033
# Bandgap, GGA (eV):                2.0867
# Kpoint for VBM:                   0.5, 0.1667, 0
# Kpoint for CBM:                   0.125, 0, 0.4167
# Dielectric constant, electronic:  4.3593
# Dielectric constant, ionic:       8.4085
# Dielectric constant, total:       12.7679
# Refractive index:                 2.0879
# Atomization energy (eV/atom):     -4.1398
# Relative energy1 (eV/atom):       0.1669
# Relative energy2 (eV/atom):       0.2951
# Volume of the unit cell (A^3):    271.59
# Density (g/cm^3):                 3.3354
# Tool:                             VASP
# Pseudopotential:                  PAW
# Note:                             ENCUT=400eV, k-spacing_relax=0.20/Angstrom, k-spacing_bandgap=0.15/Angstrom
# Created by:                       C.Kim, T.D.Huan, S.Krishnan, R. Ramprasad