data_1
_audit_creation_method   'Generated by vasp2cif'
_cell_length_a    6.52037573319
_cell_length_b    6.66081831024
_cell_length_c    7.28535631779
_cell_angle_alpha    75.4853080733
_cell_angle_beta    88.423553631
_cell_angle_gamma    87.1031557066

_symmetry_space_group_name_H-M    'P 1'
loop_
_atom_site_label
_atom_site_type_symbol
_atom_site_fract_x
_atom_site_fract_y
_atom_site_fract_z
_atom_site_occupancy
C1   C   0.671047985880996   0.665316521765604   0.390230891002211   1.0
C2   C   0.626170003586942   0.454498138078527   0.357385937784983   1.0
C3   C   0.626567686767309   0.462226431815090   0.145633095536603   1.0
H4   H   0.775976688245763   0.506417084671178   0.079355918004211   1.0
H5   H   0.594508350920890   0.310050031432184   0.125599524063432   1.0
H6   H   0.476349489383438   0.405969010288352   0.421096146477872   1.0
H7   H   0.741948128531263   0.338012248854440   0.428773518424634   1.0
H8   H   0.522826844761020   0.600888638133405   0.660222408003484   1.0
H9   H   0.682264516831999   0.796076078728007   0.630839091236922   1.0
H10   H   0.508710853371042   0.574060192713468   0.071840301998357   1.0
H11   H   0.824133848910527   0.715135345200096   0.339847109326790   1.0
H12   H   0.557552093694653   0.786613558117438   0.324870107500786   1.0
H13   H   0.778591525799669   0.553707370877326   0.671050171107687   1.0
I14   I   0.695532157078695   0.046188811979320   0.855656494962169   1.0
I15   I   0.159682063367413   0.506342947058720   0.793691761047761   1.0
I16   I   0.148974810737101   0.055337657863404   0.348782336256939   1.0
N17   N   0.662927342275260   0.653748170347342   0.601342009331837   1.0
Sn18   Sn   0.167315609856061   0.039501762076114   0.942653177933352   1.0




# HOIP entry ID:                    0805
# Khazana ID:                       2655
# Organic cation source:            S.Kataoka et al., J. Am. Chem. Soc. 137, 4158 (2015)
# Label:                            Propylammonium Tin Iodide
# Material class:                   Hybrid organic-inorganic perovskite ( MC_ino )
# Geometry class:                   Bulk crystalline materials ( GC_cry )
# Organic cation chemical formula:  CH3CH2CH2NH3
# Number of atom types:             5
# Total number of atoms:            18
# Atom types:                       C H N  Sn I
# Number of each atom:              3 10 1  1 3
# Bandgap, HSE06 (eV):              2.4483
# Bandgap, GGA (eV):                1.7766
# Kpoint for VBM:                   0.5, 0.5, 0
# Kpoint for CBM:                   0.5, 0.5, 0.5
# Dielectric constant, electronic:  4.299
# Dielectric constant, ionic:       6.9216
# Dielectric constant, total:       11.2206
# Refractive index:                 2.0734
# Atomization energy (eV/atom):     -4.3076
# Relative energy1 (eV/atom):       0.0731
# Relative energy2 (eV/atom):       0.1799
# Volume of the unit cell (A^3):    305.88
# Density (g/cm^3):                 3.0377
# Tool:                             VASP
# Pseudopotential:                  PAW
# Note:                             ENCUT=400eV, k-spacing_relax=0.20/Angstrom, k-spacing_bandgap=0.15/Angstrom
# Created by:                       C.Kim, T.D.Huan, S.Krishnan, R. Ramprasad