data_1
_audit_creation_method   'Generated by vasp2cif'
_cell_length_a    6.45235257172
_cell_length_b    6.56688111533
_cell_length_c    7.45132316955
_cell_angle_alpha    101.443767084
_cell_angle_beta    80.6806623538
_cell_angle_gamma    88.8783641917

_symmetry_space_group_name_H-M    'P 1'
loop_
_atom_site_label
_atom_site_type_symbol
_atom_site_fract_x
_atom_site_fract_y
_atom_site_fract_z
_atom_site_occupancy
C1   C   0.397284867713694   0.684584731673986   0.613388889670404   1.0
C2   C   0.329660905936940   0.505846785773102   0.709042824841973   1.0
C3   C   0.430728542611718   0.517622315119382   0.882912501161968   1.0
H4   H   0.375853455558804   0.659363057757332   0.985855939872103   1.0
H5   H   0.391696445005863   0.383920916540916   0.946111623312198   1.0
H6   H   0.378363920425521   0.357345766988516   0.612567927734148   1.0
H7   H   0.157331030364688   0.510626391817304   0.744995500423300   1.0
H8   H   0.357846437673643   0.520929236307268   0.346838201266316   1.0
H9   H   0.360051814503720   0.779861758449712   0.362334344005163   1.0
H10   H   0.602264706936424   0.516798793851933   0.847941346527755   1.0
H11   H   0.338894664075909   0.836794556837248   0.697771655159137   1.0
H12   H   0.567978696635059   0.684589927093811   0.576015125209743   1.0
H13   H   0.147951324009092   0.674838882877651   0.456725746436149   1.0
I14   I   0.395972431888680   0.098564141135569   0.205758277723163   1.0
I15   I   0.870035128387549   0.564227232384290   0.188369826487325   1.0
I16   I   0.880485465109871   0.061524671903996   0.674595739622980   1.0
N17   N   0.310408682231241   0.663625482267754   0.433111080228500   1.0
Sn18   Sn   0.877591480931642   0.090825351220218   0.081413450317761   1.0




# HOIP entry ID:                    0806
# Khazana ID:                       2656
# Organic cation source:            S.Kataoka et al., J. Am. Chem. Soc. 137, 4158 (2015)
# Label:                            Propylammonium Tin Iodide
# Material class:                   Hybrid organic-inorganic perovskite ( MC_ino )
# Geometry class:                   Bulk crystalline materials ( GC_cry )
# Organic cation chemical formula:  CH3CH2CH2NH3
# Number of atom types:             5
# Total number of atoms:            18
# Atom types:                       C H N  Sn I
# Number of each atom:              3 10 1  1 3
# Bandgap, HSE06 (eV):              2.4941
# Bandgap, GGA (eV):                1.8095
# Kpoint for VBM:                   0.5, 0.5, 0
# Kpoint for CBM:                   0.5, 0.5, 0.5
# Dielectric constant, electronic:  4.2485
# Dielectric constant, ionic:       3.6318
# Dielectric constant, total:       7.8803
# Refractive index:                 2.0612
# Atomization energy (eV/atom):     -4.3097
# Relative energy1 (eV/atom):       0.071
# Relative energy2 (eV/atom):       0.1778
# Volume of the unit cell (A^3):    304.93
# Density (g/cm^3):                 3.0471
# Tool:                             VASP
# Pseudopotential:                  PAW
# Note:                             ENCUT=400eV, k-spacing_relax=0.20/Angstrom, k-spacing_bandgap=0.15/Angstrom
# Created by:                       C.Kim, T.D.Huan, S.Krishnan, R. Ramprasad