data_1
_audit_creation_method   'Generated by vasp2cif'
_cell_length_a    6.46264657748
_cell_length_b    6.55199313731
_cell_length_c    7.50274056072
_cell_angle_alpha    102.094577442
_cell_angle_beta    80.9313355406
_cell_angle_gamma    90.4444824348

_symmetry_space_group_name_H-M    'P 1'
loop_
_atom_site_label
_atom_site_type_symbol
_atom_site_fract_x
_atom_site_fract_y
_atom_site_fract_z
_atom_site_occupancy
C1   C   0.496610464700835   0.605409040588450   0.623745719629253   1.0
C2   C   0.406618459149258   0.442922279360583   0.731442987573741   1.0
C3   C   0.529603948672838   0.437153686251460   0.889136200203863   1.0
H4   H   0.517117237205224   0.587353394337572   0.987410703587369   1.0
H5   H   0.470162951364323   0.316789336601373   0.963363550491509   1.0
H6   H   0.416167704538448   0.288823428989496   0.638334146630348   1.0
H7   H   0.239877427612586   0.478690914937048   0.785369788039855   1.0
H8   H   0.413571134562312   0.445756974361997   0.369646687003219   1.0
H9   H   0.450897744748580   0.701561167903685   0.377346092648407   1.0
H10   H   0.695841039266445   0.401295649320571   0.835623211162290   1.0
H11   H   0.470405601518130   0.765090325845002   0.704581527436458   1.0
H12   H   0.664108681809812   0.579056482368558   0.573440386539626   1.0
H13   H   0.233047483185688   0.625032709317439   0.490849787592024   1.0
I14   I   0.472880828994163   0.029449821390928   0.225348258079560   1.0
I15   I   0.959757226464113   0.509914430621220   0.199231436060387   1.0
I16   I   0.979704000601564   0.974418829530641   0.709788432031448   1.0
N17   N   0.392268302722892   0.593305887866733   0.453985300276841   1.0
Sn18   Sn   0.959299762882770   0.032245640407258   0.117545785014018   1.0




# HOIP entry ID:                    0807
# Khazana ID:                       2657
# Organic cation source:            S.Kataoka et al., J. Am. Chem. Soc. 137, 4158 (2015)
# Label:                            Propylammonium Tin Iodide
# Material class:                   Hybrid organic-inorganic perovskite ( MC_ino )
# Geometry class:                   Bulk crystalline materials ( GC_cry )
# Organic cation chemical formula:  CH3CH2CH2NH3
# Number of atom types:             5
# Total number of atoms:            18
# Atom types:                       C H N  Sn I
# Number of each atom:              3 10 1  1 3
# Bandgap, HSE06 (eV):              2.3011
# Bandgap, GGA (eV):                1.6341
# Kpoint for VBM:                   0.5, 0.5, 0
# Kpoint for CBM:                   0.5, 0.5, 0.5
# Dielectric constant, electronic:  4.3767
# Dielectric constant, ionic:       4.9015
# Dielectric constant, total:       9.2782
# Refractive index:                 2.0921
# Atomization energy (eV/atom):     -4.3104
# Relative energy1 (eV/atom):       0.0703
# Relative energy2 (eV/atom):       0.1771
# Volume of the unit cell (A^3):    306.65
# Density (g/cm^3):                 3.0301
# Tool:                             VASP
# Pseudopotential:                  PAW
# Note:                             ENCUT=400eV, k-spacing_relax=0.20/Angstrom, k-spacing_bandgap=0.15/Angstrom
# Created by:                       C.Kim, T.D.Huan, S.Krishnan, R. Ramprasad