data_1
_audit_creation_method   'Generated by vasp2cif'
_cell_length_a    6.65879684157
_cell_length_b    6.54359192531
_cell_length_c    6.8628579715
_cell_angle_alpha    97.393871585
_cell_angle_beta    83.1981907645
_cell_angle_gamma    93.7923839234

_symmetry_space_group_name_H-M    'P 1'
loop_
_atom_site_label
_atom_site_type_symbol
_atom_site_fract_x
_atom_site_fract_y
_atom_site_fract_z
_atom_site_occupancy
C1   C   0.507751131990240   0.565173336596423   0.613681343759502   1.0
C2   C   0.498618359200464   0.434605121206104   0.783631864983775   1.0
C3   C   0.578261250985442   0.218592203129837   0.719100102138533   1.0
H4   H   0.728790496146395   0.228269151566636   0.635801038925791   1.0
H5   H   0.590761833108239   0.140692844121375   0.847978253235240   1.0
H6   H   0.343196351177930   0.425119098167059   0.857811761549911   1.0
H7   H   0.591832263261203   0.519204736935237   0.891840141616676   1.0
H8   H   0.403947006092238   0.324133486771799   0.398622449136404   1.0
H9   H   0.374883061539094   0.563921657943474   0.347562714310087   1.0
H10   H   0.477451548414059   0.120438701364826   0.627098445027563   1.0
H11   H   0.458490374653437   0.720967799062258   0.662710570471148   1.0
H12   H   0.658998912033340   0.573146268096359   0.533625385090453   1.0
H13   H   0.218313964349157   0.466752011889533   0.522051550720022   1.0
I14   I   0.423222202067215   0.923845119395644   0.190395615676614   1.0
I15   I   0.936847127101622   0.388393813283187   0.169602228798588   1.0
I16   I   0.012529514562352   0.856882159961373   0.706096419410081   1.0
N17   N   0.367367947015488   0.471630482284581   0.460596897609101   1.0
Sn18   Sn   0.957336656302076   0.917362008224309   0.144463217540462   1.0




# HOIP entry ID:                    0808
# Khazana ID:                       2658
# Organic cation source:            S.Kataoka et al., J. Am. Chem. Soc. 137, 4158 (2015)
# Label:                            Propylammonium Tin Iodide
# Material class:                   Hybrid organic-inorganic perovskite ( MC_ino )
# Geometry class:                   Bulk crystalline materials ( GC_cry )
# Organic cation chemical formula:  CH3CH2CH2NH3
# Number of atom types:             5
# Total number of atoms:            18
# Atom types:                       C H N  Sn I
# Number of each atom:              3 10 1  1 3
# Bandgap, HSE06 (eV):              2.0056
# Bandgap, GGA (eV):                1.3516
# Kpoint for VBM:                   0.5, 0.5, 0.5
# Kpoint for CBM:                   0.5, 0.5, 0.5
# Dielectric constant, electronic:  4.8814
# Dielectric constant, ionic:       10.3485
# Dielectric constant, total:       15.2299
# Refractive index:                 2.2094
# Atomization energy (eV/atom):     -4.3102
# Relative energy1 (eV/atom):       0.0704
# Relative energy2 (eV/atom):       0.1773
# Volume of the unit cell (A^3):    294.06
# Density (g/cm^3):                 3.1598
# Tool:                             VASP
# Pseudopotential:                  PAW
# Note:                             ENCUT=400eV, k-spacing_relax=0.20/Angstrom, k-spacing_bandgap=0.15/Angstrom
# Created by:                       C.Kim, T.D.Huan, S.Krishnan, R. Ramprasad