data_1
_audit_creation_method   'Generated by vasp2cif'
_cell_length_a    6.73948070193
_cell_length_b    6.72162174395
_cell_length_c    6.70034739494
_cell_angle_alpha    79.3673164128
_cell_angle_beta    89.754246498
_cell_angle_gamma    83.6371302994

_symmetry_space_group_name_H-M    'P 1'
loop_
_atom_site_label
_atom_site_type_symbol
_atom_site_fract_x
_atom_site_fract_y
_atom_site_fract_z
_atom_site_occupancy
C1   C   0.584688816184418   0.587892835358623   0.357385147977176   1.0
C2   C   0.611980302452928   0.406066466409655   0.249365656783709   1.0
C3   C   0.419409672309065   0.306814067677628   0.233512642613142   1.0
H4   H   0.298730153766904   0.416732714752769   0.156670143227487   1.0
H5   H   0.445164924417931   0.183050914897009   0.148105946072192   1.0
H6   H   0.730442106817293   0.293132854652647   0.326418121922252   1.0
H7   H   0.667817899562785   0.461863923295574   0.097572614286392   1.0
H8   H   0.588847452599971   0.398102200974762   0.649573508941401   1.0
H9   H   0.357653045823426   0.494838303780611   0.570474111652615   1.0
H10   H   0.366035896727155   0.239976292963952   0.382945617457644   1.0
H11   H   0.725109071676492   0.648822965499981   0.376734815788417   1.0
H12   H   0.476385062704502   0.710275687742723   0.279987139550585   1.0
H13   H   0.512466942880444   0.642911706857340   0.652071609156906   1.0
I14   I   0.573455007120991   0.955789171782087   0.808962616697698   1.0
I15   I   0.014885711719529   0.399101408244533   0.767300433964742   1.0
I16   I   0.047529949711951   0.907103400868081   0.307003694378224   1.0
N17   N   0.504493441793564   0.526116245516064   0.571220362886834   1.0
Sn18   Sn   0.037914541730693   0.940108838725948   0.858075816642767   1.0




# HOIP entry ID:                    0809
# Khazana ID:                       2659
# Organic cation source:            S.Kataoka et al., J. Am. Chem. Soc. 137, 4158 (2015)
# Label:                            Propylammonium Tin Iodide
# Material class:                   Hybrid organic-inorganic perovskite ( MC_ino )
# Geometry class:                   Bulk crystalline materials ( GC_cry )
# Organic cation chemical formula:  CH3CH2CH2NH3
# Number of atom types:             5
# Total number of atoms:            18
# Atom types:                       C H N  Sn I
# Number of each atom:              3 10 1  1 3
# Bandgap, HSE06 (eV):              2.1058
# Bandgap, GGA (eV):                1.5144
# Kpoint for VBM:                   0.5, 0.5, 0.5
# Kpoint for CBM:                   0.5, 0.5, 0.5
# Dielectric constant, electronic:  4.6275
# Dielectric constant, ionic:       5.5281
# Dielectric constant, total:       10.1557
# Refractive index:                 2.1512
# Atomization energy (eV/atom):     -4.3109
# Relative energy1 (eV/atom):       0.0697
# Relative energy2 (eV/atom):       0.1766
# Volume of the unit cell (A^3):    296.44
# Density (g/cm^3):                 3.1344
# Tool:                             VASP
# Pseudopotential:                  PAW
# Note:                             ENCUT=400eV, k-spacing_relax=0.20/Angstrom, k-spacing_bandgap=0.15/Angstrom
# Created by:                       C.Kim, T.D.Huan, S.Krishnan, R. Ramprasad