data_1
_audit_creation_method   'Generated by vasp2cif'
_cell_length_a    6.66377721753
_cell_length_b    6.5382155815
_cell_length_c    6.84044621571
_cell_angle_alpha    82.9649228935
_cell_angle_beta    81.1147908416
_cell_angle_gamma    83.9762164906

_symmetry_space_group_name_H-M    'P 1'
loop_
_atom_site_label
_atom_site_type_symbol
_atom_site_fract_x
_atom_site_fract_y
_atom_site_fract_z
_atom_site_occupancy
C1   C   0.536120653511695   0.608119499201614   0.344493847608568   1.0
C2   C   0.534061312553320   0.471371767025616   0.179551086829115   1.0
C3   C   0.429355128982856   0.272142553072648   0.251218764410666   1.0
H4   H   0.273499940479724   0.307618543538190   0.324297391768908   1.0
H5   H   0.421480467339954   0.187473897304955   0.125375092668818   1.0
H6   H   0.690577208326978   0.436834622709860   0.106098113794374   1.0
H7   H   0.452339797648804   0.564603650249779   0.067482134212859   1.0
H8   H   0.824340895790549   0.486913825075433   0.427456588004276   1.0
H9   H   0.631611646575017   0.363483142178914   0.560501366358501   1.0
H10   H   0.511683653690206   0.167711776021861   0.355706140646866   1.0
H11   H   0.595429928388882   0.756661755332594   0.287940844997756   1.0
H12   H   0.385405412230725   0.634038032841673   0.430402649769221   1.0
H13   H   0.673082437558087   0.601027599189649   0.605928807954207   1.0
I14   I   0.594874441462046   0.961834967110541   0.775139363930535   1.0
I15   I   0.091485771329232   0.447694235996792   0.795433892828370   1.0
I16   I   0.018166724650342   0.914997838487125   0.259466148791084   1.0
N17   N   0.675121094128677   0.506296458155312   0.494391093013633   1.0
Sn18   Sn   0.111753485352899   0.977135836507458   0.818496672412138   1.0




# HOIP entry ID:                    0810
# Khazana ID:                       2660
# Organic cation source:            S.Kataoka et al., J. Am. Chem. Soc. 137, 4158 (2015)
# Label:                            Propylammonium Tin Iodide
# Material class:                   Hybrid organic-inorganic perovskite ( MC_ino )
# Geometry class:                   Bulk crystalline materials ( GC_cry )
# Organic cation chemical formula:  CH3CH2CH2NH3
# Number of atom types:             5
# Total number of atoms:            18
# Atom types:                       C H N  Sn I
# Number of each atom:              3 10 1  1 3
# Bandgap, HSE06 (eV):              2.0201
# Bandgap, GGA (eV):                1.3746
# Kpoint for VBM:                   0.5, 0.5, 0.5
# Kpoint for CBM:                   0.5, 0.5, 0.3684
# Dielectric constant, electronic:  4.9443
# Dielectric constant, ionic:       10.661
# Dielectric constant, total:       15.6053
# Refractive index:                 2.2236
# Atomization energy (eV/atom):     -4.3095
# Relative energy1 (eV/atom):       0.0712
# Relative energy2 (eV/atom):       0.178
# Volume of the unit cell (A^3):    291.11
# Density (g/cm^3):                 3.1918
# Tool:                             VASP
# Pseudopotential:                  PAW
# Note:                             ENCUT=400eV, k-spacing_relax=0.20/Angstrom, k-spacing_bandgap=0.15/Angstrom
# Created by:                       C.Kim, T.D.Huan, S.Krishnan, R. Ramprasad