data_1
_audit_creation_method   'Generated by vasp2cif'
_cell_length_a    8.31821390362
_cell_length_b    4.73681940188
_cell_length_c    8.05442205787
_cell_angle_alpha    76.0665753296
_cell_angle_beta    85.2359996561
_cell_angle_gamma    74.1258748609

_symmetry_space_group_name_H-M    'P 1'
loop_
_atom_site_label
_atom_site_type_symbol
_atom_site_fract_x
_atom_site_fract_y
_atom_site_fract_z
_atom_site_occupancy
C1   C   0.898532586508757   0.372076207465554   0.383844166845819   1.0
C2   C   0.753000025120926   0.225479225782713   0.421287969093100   1.0
C3   C   0.684786882119532   0.206306790486579   0.253483033236300   1.0
H4   H   0.581065055928384   0.100053678542309   0.281608700461902   1.0
H5   H   0.781962701315216   0.074456827917025   0.181336428794261   1.0
H6   H   0.795579774291156   0.997990169721795   0.502525025049856   1.0
H7   H   0.653743797972226   0.351901945730788   0.494160713076098   1.0
H8   H   0.046834404726006   0.070448995312795   0.589681688464005   1.0
H9   H   0.948737599937665   0.397147116142158   0.637915789816738   1.0
H10   H   0.981635405718720   0.287833968821815   0.284714494352976   1.0
H11   H   0.639827796825280   0.431153381999856   0.170931015045454   1.0
H12   H   0.857027322439102   0.616936910590454   0.343956171816664   1.0
H13   H   0.113567145171331   0.377879847255358   0.503902015978042   1.0
I14   I   0.436024331192591   0.920457475378221   0.733191976120274   1.0
I15   I   0.946762047495668   0.668386107154902   0.889659145198323   1.0
I16   I   0.269470356013073   0.759501866854080   0.295257941031856   1.0
N17   N   0.007860231718730   0.299501422325342   0.539041138983720   1.0
Sn18   Sn   0.310932535505607   0.413708062518175   0.989122586634622   1.0




# HOIP entry ID:                    0811
# Khazana ID:                       2661
# Organic cation source:            S.Kataoka et al., J. Am. Chem. Soc. 137, 4158 (2015)
# Label:                            Propylammonium Tin Iodide
# Material class:                   Hybrid organic-inorganic perovskite ( MC_ino )
# Geometry class:                   Bulk crystalline materials ( GC_cry )
# Organic cation chemical formula:  CH3CH2CH2NH3
# Number of atom types:             5
# Total number of atoms:            18
# Atom types:                       C H N  Sn I
# Number of each atom:              3 10 1  1 3
# Bandgap, HSE06 (eV):              3.065
# Bandgap, GGA (eV):                2.2954
# Kpoint for VBM:                   0.2, 0.2222, 0.2
# Kpoint for CBM:                   0.4, 0, 0.4
# Dielectric constant, electronic:  4.0872
# Dielectric constant, ionic:       6.3797
# Dielectric constant, total:       10.4669
# Refractive index:                 2.0217
# Atomization energy (eV/atom):     -4.305
# Relative energy1 (eV/atom):       0.0756
# Relative energy2 (eV/atom):       0.1824
# Volume of the unit cell (A^3):    296.22
# Density (g/cm^3):                 3.1367
# Tool:                             VASP
# Pseudopotential:                  PAW
# Note:                             ENCUT=400eV, k-spacing_relax=0.20/Angstrom, k-spacing_bandgap=0.15/Angstrom
# Created by:                       C.Kim, T.D.Huan, S.Krishnan, R. Ramprasad