data_1
_audit_creation_method   'Generated by vasp2cif'
_cell_length_a    8.55873989218
_cell_length_b    5.11248599198
_cell_length_c    8.77575738993
_cell_angle_alpha    84.3015519575
_cell_angle_beta    121.105930049
_cell_angle_gamma    114.253397487

_symmetry_space_group_name_H-M    'P 1'
loop_
_atom_site_label
_atom_site_type_symbol
_atom_site_fract_x
_atom_site_fract_y
_atom_site_fract_z
_atom_site_occupancy
C1   C   0.902572183459770   0.544638830721389   0.391076029532880   1.0
C2   C   0.771160041478583   0.643597581739713   0.416663215801950   1.0
C3   C   0.661696234283447   0.780701696167416   0.254392811666011   1.0
H4   H   0.766196963900616   0.946814747581139   0.221301405002545   1.0
H5   H   0.584990234550020   0.879114105369584   0.281424369246013   1.0
H6   H   0.661007949381705   0.459537863596980   0.435026816072674   1.0
H7   H   0.865408273404989   0.797915658108441   0.540786994890409   1.0
H8   H   0.922126897628217   0.261524391471284   0.589913658476818   1.0
H9   H   0.123398952547109   0.578322800319059   0.664344525415355   1.0
H10   H   0.813263081643162   0.378100861946887   0.274215590252308   1.0
H11   H   0.547157235187825   0.617935111839746   0.134945547726970   1.0
H12   H   0.017787327632353   0.725342458889533   0.377580510775236   1.0
H13   H   0.091996285120669   0.327751314281741   0.528953243869732   1.0
I14   I   0.299646091192715   0.052198279389760   0.888438073829576   1.0
I15   I   0.699378077298202   0.037995202739782   0.745876878222196   1.0
I16   I   0.230488342343431   0.310359801767406   0.312284407018736   1.0
N17   N   0.016828549689112   0.416804481009791   0.553630268358741   1.0
Sn18   Sn   0.001657279258045   0.796594813060258   0.009385653841769   1.0




# HOIP entry ID:                    0812
# Khazana ID:                       2662
# Organic cation source:            S.Kataoka et al., J. Am. Chem. Soc. 137, 4158 (2015)
# Label:                            Propylammonium Tin Iodide
# Material class:                   Hybrid organic-inorganic perovskite ( MC_ino )
# Geometry class:                   Bulk crystalline materials ( GC_cry )
# Organic cation chemical formula:  CH3CH2CH2NH3
# Number of atom types:             5
# Total number of atoms:            18
# Atom types:                       C H N  Sn I
# Number of each atom:              3 10 1  1 3
# Bandgap, HSE06 (eV):              3.1057
# Bandgap, GGA (eV):                2.3118
# Kpoint for VBM:                   -0.4, 0.3333, 0.25
# Kpoint for CBM:                   0.4, 0, 0.0833
# Dielectric constant, electronic:  3.9879
# Dielectric constant, ionic:       3.4529
# Dielectric constant, total:       7.4408
# Refractive index:                 1.997
# Atomization energy (eV/atom):     -4.3019
# Relative energy1 (eV/atom):       0.0787
# Relative energy2 (eV/atom):       0.1856
# Volume of the unit cell (A^3):    296.61
# Density (g/cm^3):                 3.1326
# Tool:                             VASP
# Pseudopotential:                  PAW
# Note:                             ENCUT=400eV, k-spacing_relax=0.20/Angstrom, k-spacing_bandgap=0.15/Angstrom
# Created by:                       C.Kim, T.D.Huan, S.Krishnan, R. Ramprasad