data_1
_audit_creation_method   'Generated by vasp2cif'
_cell_length_a    8.77848123935
_cell_length_b    4.78113515811
_cell_length_c    9.55372525098
_cell_angle_alpha    104.846439224
_cell_angle_beta    123.09207277
_cell_angle_gamma    60.1725884567

_symmetry_space_group_name_H-M    'P 1'
loop_
_atom_site_label
_atom_site_type_symbol
_atom_site_fract_x
_atom_site_fract_y
_atom_site_fract_z
_atom_site_occupancy
C1   C   0.175618432617071   0.383653893242193   0.592651305971346   1.0
C2   C   0.250991224048596   0.630705513336195   0.616467320303942   1.0
C3   C   0.406694763363352   0.644630970469086   0.799372193913121   1.0
H4   H   0.337321731118981   0.734295559983514   0.878464808639777   1.0
H5   H   0.470444664641633   0.803118695955788   0.813401363361828   1.0
H6   H   0.315145026291314   0.571287102513043   0.535465300476826   1.0
H7   H   0.120786301333187   0.867617058397549   0.576438295042181   1.0
H8   H   0.915405059687467   0.579282887949861   0.354627594557000   1.0
H9   H   0.867695261189582   0.709207710447515   0.512872296959155   1.0
H10   H   0.252543393139080   0.156518632912463   0.545555402276375   1.0
H11   H   0.533166650191231   0.407059713553596   0.847225076085072   1.0
H12   H   0.193557191314479   0.336440595769288   0.707973218730916   1.0
H13   H   0.897954702557672   0.339239452471979   0.439469445311055   1.0
I14   I   0.813225650558675   0.950268938234933   0.136121490695777   1.0
I15   I   0.385562690272452   0.990350399186936   0.273327246260184   1.0
I16   I   0.841261652297031   0.228688540927886   0.727977056141591   1.0
N17   N   0.949603742700328   0.508817795801236   0.466670894167114   1.0
Sn18   Sn   0.113811862677837   0.602636538847085   0.018609691106737   1.0




# HOIP entry ID:                    0813
# Khazana ID:                       2663
# Organic cation source:            S.Kataoka et al., J. Am. Chem. Soc. 137, 4158 (2015)
# Label:                            Propylammonium Tin Iodide
# Material class:                   Hybrid organic-inorganic perovskite ( MC_ino )
# Geometry class:                   Bulk crystalline materials ( GC_cry )
# Organic cation chemical formula:  CH3CH2CH2NH3
# Number of atom types:             5
# Total number of atoms:            18
# Atom types:                       C H N  Sn I
# Number of each atom:              3 10 1  1 3
# Bandgap, HSE06 (eV):              2.9978
# Bandgap, GGA (eV):                2.2193
# Kpoint for VBM:                   0.2, 0.25, 0
# Kpoint for CBM:                   0.3, 0, 0.1
# Dielectric constant, electronic:  4.2527
# Dielectric constant, ionic:       40.9375
# Dielectric constant, total:       45.1902
# Refractive index:                 2.0622
# Atomization energy (eV/atom):     -4.2995
# Relative energy1 (eV/atom):       0.0811
# Relative energy2 (eV/atom):       0.188
# Volume of the unit cell (A^3):    291.37
# Density (g/cm^3):                 3.189
# Tool:                             VASP
# Pseudopotential:                  PAW
# Note:                             ENCUT=400eV, k-spacing_relax=0.20/Angstrom, k-spacing_bandgap=0.15/Angstrom
# Created by:                       C.Kim, T.D.Huan, S.Krishnan, R. Ramprasad