data_1
_audit_creation_method   'Generated by vasp2cif'
_cell_length_a    8.74436360691
_cell_length_b    5.06372407499
_cell_length_c    8.05560853204
_cell_angle_alpha    79.6395758148
_cell_angle_beta    59.5339459324
_cell_angle_gamma    95.5021965486

_symmetry_space_group_name_H-M    'P 1'
loop_
_atom_site_label
_atom_site_type_symbol
_atom_site_fract_x
_atom_site_fract_y
_atom_site_fract_z
_atom_site_occupancy
C1   C   0.636459414184756   0.622498488837259   0.923686721040546   1.0
C2   C   0.644069394699713   0.831801868310613   0.756639697629168   1.0
C3   C   0.797509376536553   0.085926880575109   0.676267969739811   1.0
H4   H   0.787281457018004   0.168578501012895   0.797209707304297   1.0
H5   H   0.794224815613127   0.247119059766874   0.568709997905763   1.0
H6   H   0.667014312442340   0.738574561892278   0.635538595361453   1.0
H7   H   0.512604621370954   0.890809819557241   0.811311443315660   1.0
H8   H   0.466280840296797   0.307167125837488   0.908391012576068   1.0
H9   H   0.358607869356547   0.424086527811028   0.109468801926298   1.0
H10   H   0.761368306021218   0.546019293289397   0.868484734304062   1.0
H11   H   0.931260808333299   0.035257329003052   0.599226820317682   1.0
H12   H   0.614316641847125   0.707446518559877   0.047621799023055   1.0
H13   H   0.497819196865485   0.213559481438139   0.099967962957336   1.0
I14   I   0.147481120504864   0.739675482972004   0.287847055632888   1.0
I15   I   0.285835252520869   0.340675732303232   0.704404234578412   1.0
I16   I   0.714127358171716   0.085710904917860   0.248145889859195   1.0
N17   N   0.480621107748888   0.373223631423450   0.015086306828714   1.0
Sn18   Sn   0.019188106467794   0.796658792492337   0.001921249699606   1.0




# HOIP entry ID:                    0814
# Khazana ID:                       2664
# Organic cation source:            S.Kataoka et al., J. Am. Chem. Soc. 137, 4158 (2015)
# Label:                            Propylammonium Tin Iodide
# Material class:                   Hybrid organic-inorganic perovskite ( MC_ino )
# Geometry class:                   Bulk crystalline materials ( GC_cry )
# Organic cation chemical formula:  CH3CH2CH2NH3
# Number of atom types:             5
# Total number of atoms:            18
# Atom types:                       C H N  Sn I
# Number of each atom:              3 10 1  1 3
# Bandgap, HSE06 (eV):              3.0943
# Bandgap, GGA (eV):                2.2994
# Kpoint for VBM:                   -0.125, 0.3125, 0
# Kpoint for CBM:                   0, 0, 0.5
# Dielectric constant, electronic:  4.0372
# Dielectric constant, ionic:       3.7341
# Dielectric constant, total:       7.7713
# Refractive index:                 2.0093
# Atomization energy (eV/atom):     -4.3018
# Relative energy1 (eV/atom):       0.0788
# Relative energy2 (eV/atom):       0.1857
# Volume of the unit cell (A^3):    294.98
# Density (g/cm^3):                 3.1499
# Tool:                             VASP
# Pseudopotential:                  PAW
# Note:                             ENCUT=400eV, k-spacing_relax=0.20/Angstrom, k-spacing_bandgap=0.15/Angstrom
# Created by:                       C.Kim, T.D.Huan, S.Krishnan, R. Ramprasad