data_1
_audit_creation_method   'Generated by vasp2cif'
_cell_length_a    8.73918418936
_cell_length_b    4.98782582381
_cell_length_c    8.02039289539
_cell_angle_alpha    86.7364159949
_cell_angle_beta    116.225753559
_cell_angle_gamma    79.399402278

_symmetry_space_group_name_H-M    'P 1'
loop_
_atom_site_label
_atom_site_type_symbol
_atom_site_fract_x
_atom_site_fract_y
_atom_site_fract_z
_atom_site_occupancy
C1   C   0.186658221383866   0.381634085599096   0.675846223373568   1.0
C2   C   0.284338595961295   0.582593483612534   0.639036299274260   1.0
C3   C   0.416267360270197   0.653515244744838   0.823885812748713   1.0
H4   H   0.515193945806637   0.468770957766310   0.913659515161392   1.0
H5   H   0.352339628382680   0.746213317772245   0.904592390489491   1.0
H6   H   0.352662052292338   0.492723374651305   0.561791134227420   1.0
H7   H   0.188529943003566   0.769387536521080   0.546985694448338   1.0
H8   H   0.115926416458649   0.224636645060414   0.416721263188407   1.0
H9   H   0.965740891370800   0.497243613098597   0.405724011955421   1.0
H10   H   0.275558535304604   0.186710679501069   0.760084450592572   1.0
H11   H   0.485091849447542   0.798315668786152   0.795711014443505   1.0
H12   H   0.111904038031113   0.466490102260053   0.747477510433043   1.0
H13   H   0.979530020546342   0.193231957108161   0.511226153917761   1.0
I14   I   0.762155082893223   0.935768547840972   0.189288738429660   1.0
I15   I   0.266252865656817   0.089326866982134   0.205642471589158   1.0
I16   I   0.742632791919100   0.301504828581102   0.662853297166421   1.0
N17   N   0.054864901024565   0.316725493842910   0.491773268632265   1.0
Sn18   Sn   0.965952860246610   0.811727596271140   0.972050749928556   1.0




# HOIP entry ID:                    0815
# Khazana ID:                       2665
# Organic cation source:            S.Kataoka et al., J. Am. Chem. Soc. 137, 4158 (2015)
# Label:                            Propylammonium Tin Iodide
# Material class:                   Hybrid organic-inorganic perovskite ( MC_ino )
# Geometry class:                   Bulk crystalline materials ( GC_cry )
# Organic cation chemical formula:  CH3CH2CH2NH3
# Number of atom types:             5
# Total number of atoms:            18
# Atom types:                       C H N  Sn I
# Number of each atom:              3 10 1  1 3
# Bandgap, HSE06 (eV):              3.2679
# Bandgap, GGA (eV):                2.4629
# Kpoint for VBM:                   0.125, 0.3125, 0.0833
# Kpoint for CBM:                   0, 0, 0.5
# Dielectric constant, electronic:  3.8072
# Dielectric constant, ionic:       2.7267
# Dielectric constant, total:       6.5339
# Refractive index:                 1.9512
# Atomization energy (eV/atom):     -4.2983
# Relative energy1 (eV/atom):       0.0824
# Relative energy2 (eV/atom):       0.1892
# Volume of the unit cell (A^3):    304.45
# Density (g/cm^3):                 3.0519
# Tool:                             VASP
# Pseudopotential:                  PAW
# Note:                             ENCUT=400eV, k-spacing_relax=0.20/Angstrom, k-spacing_bandgap=0.15/Angstrom
# Created by:                       C.Kim, T.D.Huan, S.Krishnan, R. Ramprasad