data_1
_audit_creation_method   'Generated by vasp2cif'
_cell_length_a    6.42763250614
_cell_length_b    6.49480136448
_cell_length_c    10.3481974529
_cell_angle_alpha    59.757808458
_cell_angle_beta    123.600060476
_cell_angle_gamma    95.3446357481

_symmetry_space_group_name_H-M    'P 1'
loop_
_atom_site_label
_atom_site_type_symbol
_atom_site_fract_x
_atom_site_fract_y
_atom_site_fract_z
_atom_site_occupancy
C1   C   0.884586187106279   0.600241686054012   0.382246348588339   1.0
C2   C   0.710449189537108   0.772614737294433   0.364149811893789   1.0
C3   C   0.550425275563533   0.002265081712210   0.166828561950233   1.0
H4   H   0.677074599837560   0.102134251661774   0.132915660838833   1.0
H5   H   0.426769638225174   0.125242553440962   0.154189438526906   1.0
H6   H   0.583822736733794   0.674799927119501   0.400063858739671   1.0
H7   H   0.829373212808704   0.828163441416955   0.462147086815030   1.0
H8   H   0.965610824625386   0.294465313724643   0.636172420805984   1.0
H9   H   0.194307425824704   0.445000553158316   0.665744002807251   1.0
H10   H   0.773446513419024   0.520343011796584   0.300789499193755   1.0
H11   H   0.427956261788317   0.953691934331815   0.065124350182444   1.0
H12   H   0.007703872267108   0.693445305009135   0.341215090032627   1.0
H13   H   0.173227724851486   0.257807236586657   0.594413954963223   1.0
I14   I   0.309743161088036   0.704637772958719   0.845306597153112   1.0
I15   I   0.785915935619954   0.208363118876896   0.842146346353488   1.0
I16   I   0.281560068664412   0.221354186811716   0.356916112289625   1.0
N17   N   0.066730201991916   0.384153555378823   0.582505396006141   1.0
Sn18   Sn   0.920497170047547   0.588866332666875   0.946735462859550   1.0




# HOIP entry ID:                    0816
# Khazana ID:                       2666
# Organic cation source:            S.Kataoka et al., J. Am. Chem. Soc. 137, 4158 (2015)
# Label:                            Propylammonium Tin Iodide
# Material class:                   Hybrid organic-inorganic perovskite ( MC_ino )
# Geometry class:                   Bulk crystalline materials ( GC_cry )
# Organic cation chemical formula:  CH3CH2CH2NH3
# Number of atom types:             5
# Total number of atoms:            18
# Atom types:                       C H N  Sn I
# Number of each atom:              3 10 1  1 3
# Bandgap, HSE06 (eV):              2.2738
# Bandgap, GGA (eV):                1.6324
# Kpoint for VBM:                   0.5, 0.5, 0
# Kpoint for CBM:                   0.4211, 0.4211, 0.4211
# Dielectric constant, electronic:  4.4969
# Dielectric constant, ionic:       7.2433
# Dielectric constant, total:       11.7402
# Refractive index:                 2.1206
# Atomization energy (eV/atom):     -4.3068
# Relative energy1 (eV/atom):       0.0738
# Relative energy2 (eV/atom):       0.1807
# Volume of the unit cell (A^3):    300.33
# Density (g/cm^3):                 3.0938
# Tool:                             VASP
# Pseudopotential:                  PAW
# Note:                             ENCUT=400eV, k-spacing_relax=0.20/Angstrom, k-spacing_bandgap=0.15/Angstrom
# Created by:                       C.Kim, T.D.Huan, S.Krishnan, R. Ramprasad