data_1
_audit_creation_method   'Generated by vasp2cif'
_cell_length_a    6.68215838254
_cell_length_b    6.57343936972
_cell_length_c    7.86752231262
_cell_angle_alpha    74.9950182311
_cell_angle_beta    77.1883149853
_cell_angle_gamma    83.4889556901

_symmetry_space_group_name_H-M    'P 1'
loop_
_atom_site_label
_atom_site_type_symbol
_atom_site_fract_x
_atom_site_fract_y
_atom_site_fract_z
_atom_site_occupancy
C1   C   0.512850011986113   0.676595023855197   0.802940391569644   1.0
C2   C   0.495472554011663   0.287412565329500   0.505557020521161   1.0
C3   C   0.449380006753363   0.387512702698193   0.665498343018807   1.0
C4   C   0.569471432286095   0.583958425942166   0.637609464666514   1.0
H5   H   0.228489854441422   0.415528531022608   0.400889906543750   1.0
H6   H   0.418696220372707   0.344749004262361   0.249413503191389   1.0
H7   H   0.427830416981813   0.569623679194620   0.310885320113842   1.0
H8   H   0.347413337324791   0.715666763958834   0.833478768087065   1.0
H9   H   0.554683407133579   0.563214989389919   0.920849085384019   1.0
H10   H   0.593041753476915   0.819421767267163   0.781620769658831   1.0
H11   H   0.487799711113677   0.267088161896883   0.780675950096097   1.0
H12   H   0.282999011736213   0.425646878981641   0.700966766975342   1.0
H13   H   0.735301678634935   0.540799626432876   0.609853668148544   1.0
H14   H   0.537806506235502   0.705258747781960   0.519711700766597   1.0
H15   H   0.658661260429470   0.282296788980874   0.445288746611127   1.0
H16   H   0.440245583216412   0.129223346452088   0.540233320410387   1.0
I17   I   0.992749987352860   0.028387838683727   0.647247417233008   1.0
I18   I   0.462320645959721   0.981937209679860   0.149150595002362   1.0
I19   I   0.960132089245493   0.480468714077788   0.115855690727454   1.0
N20   N   0.385999527674796   0.414741264915179   0.357016813984361   1.0
Sn21   Sn   0.938705003632431   0.959357969196245   0.043536757290371   1.0




# HOIP entry ID:                    0817
# Khazana ID:                       2667
# Organic cation source:            H. Hu et al., Sci. Rep. 6, 33546 (2016)
# Label:                            Butylammonium Tin Iodide
# Material class:                   Hybrid organic-inorganic perovskite ( MC_ino )
# Geometry class:                   Bulk crystalline materials ( GC_cry )
# Organic cation chemical formula:  CH3CH2CH2CH2NH3
# Number of atom types:             5
# Total number of atoms:            21
# Atom types:                       C H N  Sn I
# Number of each atom:              4 12 1  1 3
# Bandgap, HSE06 (eV):              2.4672
# Bandgap, GGA (eV):                1.7491
# Kpoint for VBM:                   0.5, 0.5, 0
# Kpoint for CBM:                   0.5, 0.5, 0.5
# Dielectric constant, electronic:  4.1172
# Dielectric constant, ionic:       3.9323
# Dielectric constant, total:       8.0494
# Refractive index:                 2.0291
# Atomization energy (eV/atom):     -4.4179
# Relative energy1 (eV/atom):       0.0156
# Relative energy2 (eV/atom):       0.1072
# Volume of the unit cell (A^3):    324.91
# Density (g/cm^3):                 2.9315
# Tool:                             VASP
# Pseudopotential:                  PAW
# Note:                             ENCUT=400eV, k-spacing_relax=0.20/Angstrom, k-spacing_bandgap=0.15/Angstrom
# Created by:                       C.Kim, T.D.Huan, S.Krishnan, R. Ramprasad