data_1
_audit_creation_method   'Generated by vasp2cif'
_cell_length_a    7.11629400864
_cell_length_b    6.14579905471
_cell_length_c    8.02367673423
_cell_angle_alpha    72.3291556998
_cell_angle_beta    81.2521568336
_cell_angle_gamma    88.8971103805

_symmetry_space_group_name_H-M    'P 1'
loop_
_atom_site_label
_atom_site_type_symbol
_atom_site_fract_x
_atom_site_fract_y
_atom_site_fract_z
_atom_site_occupancy
C1   C   0.469815164530921   0.633977257628878   0.808877627105943   1.0
C2   C   0.485898674520286   0.234856723322679   0.508036741804794   1.0
C3   C   0.410526805913335   0.348274007848794   0.648652158341008   1.0
C4   C   0.547433506382333   0.531963212447621   0.660796977225438   1.0
H5   H   0.360213362484345   0.462617861625162   0.300947830873376   1.0
H6   H   0.547879160476064   0.329011993371253   0.229299612982572   1.0
H7   H   0.580703032010135   0.546971400985306   0.306900446244505   1.0
H8   H   0.333441610024146   0.713424328269546   0.786086421408790   1.0
H9   H   0.445886719949236   0.500766851587137   0.937139745831580   1.0
H10   H   0.568944543797215   0.762385231600355   0.816750747309449   1.0
H11   H   0.387871152474205   0.212875891774040   0.776017248036290   1.0
H12   H   0.270730619213502   0.420447615584536   0.625149143656522   1.0
H13   H   0.686313441443694   0.456748664194357   0.682708404915758   1.0
H14   H   0.573353504034394   0.670893430057880   0.534747907033172   1.0
H15   H   0.630059508390787   0.173764947091676   0.519762582718769   1.0
H16   H   0.393010585811041   0.094067438903316   0.510767129820245   1.0
I17   I   0.983066048510089   0.905054062952615   0.648352208958741   1.0
I18   I   0.575892787950373   0.998569061621801   0.102522280903969   1.0
I19   I   0.013959830556502   0.506890933343122   0.219371629935331   1.0
N20   N   0.494977522362369   0.406064911603970   0.324621993763444   1.0
Sn21   Sn   0.003252419165051   0.997394174186056   0.989571161130257   1.0




# HOIP entry ID:                    0819
# Khazana ID:                       2669
# Organic cation source:            H. Hu et al., Sci. Rep. 6, 33546 (2016)
# Label:                            Butylammonium Tin Iodide
# Material class:                   Hybrid organic-inorganic perovskite ( MC_ino )
# Geometry class:                   Bulk crystalline materials ( GC_cry )
# Organic cation chemical formula:  CH3CH2CH2CH2NH3
# Number of atom types:             5
# Total number of atoms:            21
# Atom types:                       C H N  Sn I
# Number of each atom:              4 12 1  1 3
# Bandgap, HSE06 (eV):              3.1234
# Bandgap, GGA (eV):                2.3191
# Kpoint for VBM:                   0.5, 0.5, 0
# Kpoint for CBM:                   0.5, 0.5, 0.5
# Dielectric constant, electronic:  3.5942
# Dielectric constant, ionic:       1.8786
# Dielectric constant, total:       5.4728
# Refractive index:                 1.8958
# Atomization energy (eV/atom):     -4.4157
# Relative energy1 (eV/atom):       0.0178
# Relative energy2 (eV/atom):       0.1094
# Volume of the unit cell (A^3):    330.34
# Density (g/cm^3):                 2.8833
# Tool:                             VASP
# Pseudopotential:                  PAW
# Note:                             ENCUT=400eV, k-spacing_relax=0.20/Angstrom, k-spacing_bandgap=0.15/Angstrom
# Created by:                       C.Kim, T.D.Huan, S.Krishnan, R. Ramprasad