data_1
_audit_creation_method   'Generated by vasp2cif'
_cell_length_a    6.81257968357
_cell_length_b    6.64382094661
_cell_length_c    6.65896933188
_cell_angle_alpha    81.5272256203
_cell_angle_beta    83.7363648556
_cell_angle_gamma    90.6818619427

_symmetry_space_group_name_H-M    'P 1'
loop_
_atom_site_label
_atom_site_type_symbol
_atom_site_fract_x
_atom_site_fract_y
_atom_site_fract_z
_atom_site_occupancy
C1   C   0.421203805189691   0.710097714558756   0.201043963151676   1.0
C2   C   0.568439302961963   0.884618162064598   0.203384974109518   1.0
C3   C   0.490651489005046   0.040019200734733   0.337248494619970   1.0
H4   H   0.456246359872885   0.968529325171723   0.496630608958732   1.0
H5   H   0.596169668053015   0.166335464836152   0.330694773934575   1.0
H6   H   0.354819959503771   0.101746409205617   0.283457129722706   1.0
H7   H   0.858450367158873   0.912567595882386   0.291830784317121   1.0
H8   H   0.618006818707961   0.957967088860890   0.047750525540842   1.0
H9   H   0.485283578420486   0.592570313906592   0.116969934261356   1.0
H10   H   0.295640023777217   0.770978934275504   0.124485844726308   1.0
H11   H   0.366882073029593   0.640077330918317   0.356809699779134   1.0
H12   H   0.824078015018536   0.696142085039980   0.197156520607990   1.0
H13   H   0.723479717493944   0.717790597007308   0.432854041540885   1.0
I14   I   0.584724137917796   0.389724233965623   0.736864798446149   1.0
I15   I   0.023576723812923   0.879340275998985   0.751322335520726   1.0
I16   I   0.010683224546334   0.322153024049840   0.181790022924133   1.0
N17   N   0.757416217975788   0.796522795785876   0.286556709599210   1.0
Sn18   Sn   0.030758517554176   0.338749447737079   0.719728838238971   1.0




# HOIP entry ID:                    0820
# Khazana ID:                       2670
# Organic cation source:            C.C.Stoumpos et al., J. Am. Chem. Soc. 137, 6804 (2015)
# Label:                            Isopropylammonium Tin Iodide
# Material class:                   Hybrid organic-inorganic perovskite ( MC_ino )
# Geometry class:                   Bulk crystalline materials ( GC_cry )
# Organic cation chemical formula:  (CH3)2CHNH3
# Number of atom types:             5
# Total number of atoms:            18
# Atom types:                       C H N  Sn I
# Number of each atom:              3 10 1  1 3
# Bandgap, HSE06 (eV):              2.4481
# Bandgap, GGA (eV):                1.7822
# Kpoint for VBM:                   0.5, 0.5, 0.5
# Kpoint for CBM:                   0.4737, 0.4737, 0.4737
# Dielectric constant, electronic:  4.6305
# Dielectric constant, ionic:       5.9236
# Dielectric constant, total:       10.5542
# Refractive index:                 2.1519
# Atomization energy (eV/atom):     -4.3143
# Relative energy1 (eV/atom):       0.0724
# Relative energy2 (eV/atom):       0.1792
# Volume of the unit cell (A^3):    296.21
# Density (g/cm^3):                 3.1368
# Tool:                             VASP
# Pseudopotential:                  PAW
# Note:                             ENCUT=400eV, k-spacing_relax=0.20/Angstrom, k-spacing_bandgap=0.15/Angstrom
# Created by:                       C.Kim, T.D.Huan, S.Krishnan, R. Ramprasad