data_1
_audit_creation_method   'Generated by vasp2cif'
_cell_length_a    6.81491086626
_cell_length_b    6.69264158551
_cell_length_c    6.59361010586
_cell_angle_alpha    80.1499048219
_cell_angle_beta    84.8607606369
_cell_angle_gamma    90.9558729696

_symmetry_space_group_name_H-M    'P 1'
loop_
_atom_site_label
_atom_site_type_symbol
_atom_site_fract_x
_atom_site_fract_y
_atom_site_fract_z
_atom_site_occupancy
C1   C   0.442801996137774   0.642579362080980   0.356493830988192   1.0
C2   C   0.604857209897787   0.749211781152383   0.447453181476725   1.0
C3   C   0.534093784652015   0.836646194686345   0.638855332048230   1.0
H4   H   0.428893719742142   0.954348973767488   0.595893362126226   1.0
H5   H   0.459838352937695   0.720076338203924   0.759331669548978   1.0
H6   H   0.655880898799083   0.905469549204788   0.702092076816122   1.0
H7   H   0.871857552646517   0.659066477930928   0.580215671799358   1.0
H8   H   0.680488271584480   0.866885577625879   0.329540326664862   1.0
H9   H   0.330398285389720   0.751771169271528   0.311115998516037   1.0
H10   H   0.371922413156575   0.517361146722550   0.470233088711701   1.0
H11   H   0.499574324214706   0.582376571282573   0.219414471584521   1.0
H12   H   0.834177486528752   0.549397112522627   0.376334402174493   1.0
H13   H   0.705484720346313   0.469471912251855   0.607285981557098   1.0
I14   I   0.543235972415026   0.229829189480611   0.980398998092859   1.0
I15   I   0.019667372299224   0.669150141298473   0.974831323258172   1.0
I16   I   0.042874385059449   0.136437103178125   0.462776154677563   1.0
N17   N   0.765403934012049   0.595721462015540   0.505919314293600   1.0
Sn18   Sn   0.098279320180751   0.211009937323397   0.998564815665297   1.0




# HOIP entry ID:                    0821
# Khazana ID:                       2671
# Organic cation source:            C.C.Stoumpos et al., J. Am. Chem. Soc. 137, 6804 (2015)
# Label:                            Isopropylammonium Tin Iodide
# Material class:                   Hybrid organic-inorganic perovskite ( MC_ino )
# Geometry class:                   Bulk crystalline materials ( GC_cry )
# Organic cation chemical formula:  (CH3)2CHNH3
# Number of atom types:             5
# Total number of atoms:            18
# Atom types:                       C H N  Sn I
# Number of each atom:              3 10 1  1 3
# Bandgap, HSE06 (eV):              2.1999
# Bandgap, GGA (eV):                1.5949
# Kpoint for VBM:                   0.5, 0.5, 0.5
# Kpoint for CBM:                   0.5, 0.5, 0.3947
# Dielectric constant, electronic:  4.6422
# Dielectric constant, ionic:       4.7725
# Dielectric constant, total:       9.4147
# Refractive index:                 2.1546
# Atomization energy (eV/atom):     -4.317
# Relative energy1 (eV/atom):       0.0696
# Relative energy2 (eV/atom):       0.1765
# Volume of the unit cell (A^3):    294.95
# Density (g/cm^3):                 3.1502
# Tool:                             VASP
# Pseudopotential:                  PAW
# Note:                             ENCUT=400eV, k-spacing_relax=0.20/Angstrom, k-spacing_bandgap=0.15/Angstrom
# Created by:                       C.Kim, T.D.Huan, S.Krishnan, R. Ramprasad