data_1
_audit_creation_method   'Generated by vasp2cif'
_cell_length_a    6.74629056775
_cell_length_b    6.45294224794
_cell_length_c    6.85181275495
_cell_angle_alpha    94.6840399683
_cell_angle_beta    92.4667763608
_cell_angle_gamma    84.0954355259

_symmetry_space_group_name_H-M    'P 1'
loop_
_atom_site_label
_atom_site_type_symbol
_atom_site_fract_x
_atom_site_fract_y
_atom_site_fract_z
_atom_site_occupancy
C1   C   0.587851318430495   0.709641015607843   0.607290522919719   1.0
C2   C   0.450529341297980   0.540772369056661   0.633093782251656   1.0
C3   C   0.345972982563545   0.565811075397932   0.827662137813881   1.0
H4   H   0.457655096228024   0.560770001473379   0.947763451039840   1.0
H5   H   0.250647198147796   0.440959489733117   0.839614309453651   1.0
H6   H   0.255506422492026   0.716786722896487   0.843460193505571   1.0
H7   H   0.343443325127467   0.511509593018538   0.332736808497536   1.0
H8   H   0.530407940004586   0.384641302375364   0.609327623428463   1.0
H9   H   0.714018003052871   0.692148684339394   0.712246517451980   1.0
H10   H   0.646489402457092   0.695385969747932   0.460089646776623   1.0
H11   H   0.509919461970242   0.866194115444024   0.635246919983906   1.0
H12   H   0.185202126107775   0.441962960967025   0.487707365619805   1.0
H13   H   0.207819257807451   0.696174074999746   0.472666838618117   1.0
I14   I   0.988630370223319   0.093511969349756   0.576587192962933   1.0
I15   I   0.885946903281912   0.539775310504020   0.112971588260429   1.0
I16   I   0.451620403986709   0.085537242962275   0.148388708608422   1.0
N17   N   0.285970743022275   0.549150294782478   0.469572067563689   1.0
Sn18   Sn   0.898219703798432   0.067787807344068   0.128834325243858   1.0




# HOIP entry ID:                    0822
# Khazana ID:                       2672
# Organic cation source:            C.C.Stoumpos et al., J. Am. Chem. Soc. 137, 6804 (2015)
# Label:                            Isopropylammonium Tin Iodide
# Material class:                   Hybrid organic-inorganic perovskite ( MC_ino )
# Geometry class:                   Bulk crystalline materials ( GC_cry )
# Organic cation chemical formula:  (CH3)2CHNH3
# Number of atom types:             5
# Total number of atoms:            18
# Atom types:                       C H N  Sn I
# Number of each atom:              3 10 1  1 3
# Bandgap, HSE06 (eV):              2.2832
# Bandgap, GGA (eV):                1.5787
# Kpoint for VBM:                   0.5, 0.5, 0.5
# Kpoint for CBM:                   0.5, 0.5, 0.5
# Dielectric constant, electronic:  4.7342
# Dielectric constant, ionic:       8.4948
# Dielectric constant, total:       13.229
# Refractive index:                 2.1758
# Atomization energy (eV/atom):     -4.3124
# Relative energy1 (eV/atom):       0.0743
# Relative energy2 (eV/atom):       0.1811
# Volume of the unit cell (A^3):    295.53
# Density (g/cm^3):                 3.1441
# Tool:                             VASP
# Pseudopotential:                  PAW
# Note:                             ENCUT=400eV, k-spacing_relax=0.20/Angstrom, k-spacing_bandgap=0.15/Angstrom
# Created by:                       C.Kim, T.D.Huan, S.Krishnan, R. Ramprasad