data_1
_audit_creation_method   'Generated by vasp2cif'
_cell_length_a    6.90052002377
_cell_length_b    6.41280330498
_cell_length_c    6.79110723449
_cell_angle_alpha    95.763037513
_cell_angle_beta    87.2078991811
_cell_angle_gamma    95.3184650868

_symmetry_space_group_name_H-M    'P 1'
loop_
_atom_site_label
_atom_site_type_symbol
_atom_site_fract_x
_atom_site_fract_y
_atom_site_fract_z
_atom_site_occupancy
C1   C   0.551197449446825   0.751755000710133   0.314675622317267   1.0
C2   C   0.582601197515082   0.582024925821514   0.449168103676804   1.0
C3   C   0.782845687725342   0.604378935125311   0.537884590449380   1.0
H4   H   0.894924369458117   0.596198589203389   0.418961133974946   1.0
H5   H   0.798216038131770   0.479086240118271   0.632028591555908   1.0
H6   H   0.807429544014973   0.756754470809689   0.625355122003718   1.0
H7   H   0.291074155816069   0.560615928994800   0.577573535149710   1.0
H8   H   0.550813857570859   0.424796886919395   0.372476342747198   1.0
H9   H   0.649557721833709   0.734342994884528   0.184075331811727   1.0
H10   H   0.401895881497332   0.737403063210294   0.264723945476909   1.0
H11   H   0.583538126063814   0.909494187765901   0.390415502304755   1.0
H12   H   0.453150886917342   0.485431317716568   0.721736553414132   1.0
H13   H   0.443306063134969   0.742524398516892   0.701218148913632   1.0
I14   I   0.539391247383776   0.142166684508389   0.918314343224850   1.0
I15   I   0.058579209888165   0.606955445150206   0.999855455126948   1.0
I16   I   0.108405316353078   0.134931045567626   0.455732242544599   1.0
N17   N   0.431566525154196   0.594465951676909   0.623835484629637   1.0
Sn18   Sn   0.095566722094546   0.095743933300149   0.012369950677858   1.0




# HOIP entry ID:                    0823
# Khazana ID:                       2673
# Organic cation source:            C.C.Stoumpos et al., J. Am. Chem. Soc. 137, 6804 (2015)
# Label:                            Isopropylammonium Tin Iodide
# Material class:                   Hybrid organic-inorganic perovskite ( MC_ino )
# Geometry class:                   Bulk crystalline materials ( GC_cry )
# Organic cation chemical formula:  (CH3)2CHNH3
# Number of atom types:             5
# Total number of atoms:            18
# Atom types:                       C H N  Sn I
# Number of each atom:              3 10 1  1 3
# Bandgap, HSE06 (eV):              2.0718
# Bandgap, GGA (eV):                1.383
# Kpoint for VBM:                   0.5, 0.5, 0.5
# Kpoint for CBM:                   0.4737, 0.4737, 0.4737
# Dielectric constant, electronic:  4.7973
# Dielectric constant, ionic:       35.212
# Dielectric constant, total:       40.0093
# Refractive index:                 2.1903
# Atomization energy (eV/atom):     -4.3128
# Relative energy1 (eV/atom):       0.0739
# Relative energy2 (eV/atom):       0.1807
# Volume of the unit cell (A^3):    297.48
# Density (g/cm^3):                 3.1235
# Tool:                             VASP
# Pseudopotential:                  PAW
# Note:                             ENCUT=400eV, k-spacing_relax=0.20/Angstrom, k-spacing_bandgap=0.15/Angstrom
# Created by:                       C.Kim, T.D.Huan, S.Krishnan, R. Ramprasad