data_1
_audit_creation_method   'Generated by vasp2cif'
_cell_length_a    8.16479187547
_cell_length_b    4.87000988387
_cell_length_c    8.03958853877
_cell_angle_alpha    96.0297756849
_cell_angle_beta    98.4472658802
_cell_angle_gamma    108.039066158

_symmetry_space_group_name_H-M    'P 1'
loop_
_atom_site_label
_atom_site_type_symbol
_atom_site_fract_x
_atom_site_fract_y
_atom_site_fract_z
_atom_site_occupancy
C1   C   0.677708893162976   0.903551186766421   0.625688441487787   1.0
C2   C   0.575418595610345   0.576083673446989   0.582545909284856   1.0
C3   C   0.475665818887821   0.463403125932750   0.721521074924639   1.0
H4   H   0.567970930203254   0.491847978667647   0.840088874914156   1.0
H5   H   0.396405888705666   0.232274082333463   0.687863173084817   1.0
H6   H   0.388318213338640   0.587493089786757   0.746713345224420   1.0
H7   H   0.497577844166133   0.598646424271527   0.317909368655303   1.0
H8   H   0.663354494643747   0.455129542779581   0.554264860545700   1.0
H9   H   0.739395495392007   0.988108398995935   0.521505036614801   1.0
H10   H   0.591074741495259   0.023676555689036   0.658979027559184   1.0
H11   H   0.781768816091930   0.942111426512070   0.736659513804402   1.0
H12   H   0.379965403138179   0.289951575972177   0.375853272509570   1.0
H13   H   0.341431553307943   0.599478361739539   0.431505001756114   1.0
I14   I   0.075988157328193   0.779233378236726   0.466421065155387   1.0
I15   I   0.144479195121140   0.267222577505775   0.995738254706344   1.0
I16   I   0.610819379611874   0.043253248651768   0.141534589982770   1.0
N17   N   0.440442238732207   0.511669610151005   0.415814428867702   1.0
Sn18   Sn   0.908794341062670   0.621915762560779   0.096354760922009   1.0




# HOIP entry ID:                    0824
# Khazana ID:                       2674
# Organic cation source:            C.C.Stoumpos et al., J. Am. Chem. Soc. 137, 6804 (2015)
# Label:                            Isopropylammonium Tin Iodide
# Material class:                   Hybrid organic-inorganic perovskite ( MC_ino )
# Geometry class:                   Bulk crystalline materials ( GC_cry )
# Organic cation chemical formula:  (CH3)2CHNH3
# Number of atom types:             5
# Total number of atoms:            18
# Atom types:                       C H N  Sn I
# Number of each atom:              3 10 1  1 3
# Bandgap, HSE06 (eV):              2.9794
# Bandgap, GGA (eV):                2.2255
# Kpoint for VBM:                   -0.2, 0.3125, 0
# Kpoint for CBM:                   0.5, 0, 0.1
# Dielectric constant, electronic:  4.0576
# Dielectric constant, ionic:       7.3691
# Dielectric constant, total:       11.4267
# Refractive index:                 2.0144
# Atomization energy (eV/atom):     -4.3094
# Relative energy1 (eV/atom):       0.0773
# Relative energy2 (eV/atom):       0.1841
# Volume of the unit cell (A^3):    296.79
# Density (g/cm^3):                 3.1307
# Tool:                             VASP
# Pseudopotential:                  PAW
# Note:                             ENCUT=400eV, k-spacing_relax=0.20/Angstrom, k-spacing_bandgap=0.15/Angstrom
# Created by:                       C.Kim, T.D.Huan, S.Krishnan, R. Ramprasad