data_1
_audit_creation_method   'Generated by vasp2cif'
_cell_length_a    8.51135672055
_cell_length_b    4.85434379264
_cell_length_c    7.91453251995
_cell_angle_alpha    107.478022197
_cell_angle_beta    79.1946086546
_cell_angle_gamma    104.904495418

_symmetry_space_group_name_H-M    'P 1'
loop_
_atom_site_label
_atom_site_type_symbol
_atom_site_fract_x
_atom_site_fract_y
_atom_site_fract_z
_atom_site_occupancy
C1   C   0.348323715627803   0.336818513261172   0.666292915180140   1.0
C2   C   0.403353971797796   0.050580580857839   0.559824535656954   1.0
C3   C   0.275939482066302   0.839157774329559   0.442031463523506   1.0
H4   H   0.161063328097327   0.783068942089576   0.525027284542954   1.0
H5   H   0.314842753639277   0.635367062570007   0.365451908428959   1.0
H6   H   0.250515241128173   0.943517174804550   0.347822644651945   1.0
H7   H   0.655362844033884   0.268867647091875   0.510856771339491   1.0
H8   H   0.434297192657609   0.947002630194210   0.650728571053950   1.0
H9   H   0.302866903843093   0.428122870377825   0.579109931238702   1.0
H10   H   0.247745857249107   0.283535342098206   0.767919676101840   1.0
H11   H   0.445820442885930   0.502136876738586   0.734977162929268   1.0
H12   H   0.607842793154296   0.928420210929273   0.374676593425843   1.0
H13   H   0.549995796675970   0.206730760827834   0.340177435372165   1.0
I14   I   0.555262019561779   0.402154307965591   0.070039252514829   1.0
I15   I   0.004893458420861   0.160435341563891   0.172522814599264   1.0
I16   I   0.818015741517530   0.822937614355341   0.638748788607369   1.0
N17   N   0.564807188469506   0.118417668209931   0.439496936638503   1.0
Sn18   Sn   0.908411269173669   0.500248681734884   0.920225314194290   1.0




# HOIP entry ID:                    0825
# Khazana ID:                       2675
# Organic cation source:            S.Kataoka et al., J. Am. Chem. Soc. 137, 4158 (2015)
# Label:                            Propylammonium Tin Iodide
# Material class:                   Hybrid organic-inorganic perovskite ( MC_ino )
# Geometry class:                   Bulk crystalline materials ( GC_cry )
# Organic cation chemical formula:  CH3CH2CH2NH3
# Number of atom types:             5
# Total number of atoms:            18
# Atom types:                       C H N  Sn I
# Number of each atom:              3 10 1  1 3
# Bandgap, HSE06 (eV):              3.015
# Bandgap, GGA (eV):                2.2661
# Kpoint for VBM:                   0.25, -0.2778, 0.1667
# Kpoint for CBM:                   -0.125, 0, 0.4167
# Dielectric constant, electronic:  4.0661
# Dielectric constant, ionic:       21.6134
# Dielectric constant, total:       25.6795
# Refractive index:                 2.0165
# Atomization energy (eV/atom):     -4.3087
# Relative energy1 (eV/atom):       0.072
# Relative energy2 (eV/atom):       0.1788
# Volume of the unit cell (A^3):    299.25
# Density (g/cm^3):                 3.105
# Tool:                             VASP
# Pseudopotential:                  PAW
# Note:                             ENCUT=400eV, k-spacing_relax=0.20/Angstrom, k-spacing_bandgap=0.15/Angstrom
# Created by:                       C.Kim, T.D.Huan, S.Krishnan, R. Ramprasad