data_1
_audit_creation_method   'Generated by vasp2cif'
_cell_length_a    8.5809147446
_cell_length_b    4.85667489561
_cell_length_c    8.01388012262
_cell_angle_alpha    108.248178779
_cell_angle_beta    78.7890703018
_cell_angle_gamma    108.277178253

_symmetry_space_group_name_H-M    'P 1'
loop_
_atom_site_label
_atom_site_type_symbol
_atom_site_fract_x
_atom_site_fract_y
_atom_site_fract_z
_atom_site_occupancy
C1   C   0.661153339424843   0.342468071561761   0.351129618256863   1.0
C2   C   0.602118915404724   0.106209558991239   0.455442242628806   1.0
C3   C   0.729036975282220   0.135014735859109   0.573805120575400   1.0
H4   H   0.844047171846256   0.107202378560636   0.493077875928918   1.0
H5   H   0.686618736910553   0.968400556702022   0.649199640170778   1.0
H6   H   0.757245857992451   0.359301720170016   0.667622558029251   1.0
H7   H   0.351239842635451   0.136016157158735   0.502024876118433   1.0
H8   H   0.568380599213292   0.880775961254130   0.364567800510578   1.0
H9   H   0.709205975564522   0.566050966803047   0.438353509084131   1.0
H10   H   0.761854838460948   0.286052551378233   0.251792449516955   1.0
H11   H   0.564147666124235   0.344826983825570   0.281652676808655   1.0
H12   H   0.392009284053827   0.963154048599698   0.632559436480335   1.0
H13   H   0.458105313287938   0.335841408851131   0.674758095791240   1.0
I14   I   0.454781913528599   0.796999267389218   0.945067194143959   1.0
I15   I   0.005782752734838   0.995960325783741   0.833147073688345   1.0
I16   I   0.186230961807794   0.380634311223147   0.368997920227315   1.0
N17   N   0.440301625388685   0.136679749183642   0.573059584192400   1.0
Sn18   Sn   0.098808230338854   0.684361246704988   0.086372327847656   1.0




# HOIP entry ID:                    0826
# Khazana ID:                       2676
# Organic cation source:            C.C.Stoumpos et al., J. Am. Chem. Soc. 137, 6804 (2015)
# Label:                            Isopropylammonium Tin Iodide
# Material class:                   Hybrid organic-inorganic perovskite ( MC_ino )
# Geometry class:                   Bulk crystalline materials ( GC_cry )
# Organic cation chemical formula:  (CH3)2CHNH3
# Number of atom types:             5
# Total number of atoms:            18
# Atom types:                       C H N  Sn I
# Number of each atom:              3 10 1  1 3
# Bandgap, HSE06 (eV):              3.0191
# Bandgap, GGA (eV):                2.2685
# Kpoint for VBM:                   0.25, -0.2778, 0.1667
# Kpoint for CBM:                   -0.125, 0, 0.4167
# Dielectric constant, electronic:  4.0616
# Dielectric constant, ionic:       28.2942
# Dielectric constant, total:       32.3557
# Refractive index:                 2.0153
# Atomization energy (eV/atom):     -4.3087
# Relative energy1 (eV/atom):       0.0779
# Relative energy2 (eV/atom):       0.1848
# Volume of the unit cell (A^3):    299.46
# Density (g/cm^3):                 3.1028
# Tool:                             VASP
# Pseudopotential:                  PAW
# Note:                             ENCUT=400eV, k-spacing_relax=0.20/Angstrom, k-spacing_bandgap=0.15/Angstrom
# Created by:                       C.Kim, T.D.Huan, S.Krishnan, R. Ramprasad