data_1
_audit_creation_method   'Generated by vasp2cif'
_cell_length_a    8.00194949775
_cell_length_b    4.67593851434
_cell_length_c    8.41596933326
_cell_angle_alpha    75.414098713
_cell_angle_beta    77.5468626392
_cell_angle_gamma    88.6995697295

_symmetry_space_group_name_H-M    'P 1'
loop_
_atom_site_label
_atom_site_type_symbol
_atom_site_fract_x
_atom_site_fract_y
_atom_site_fract_z
_atom_site_occupancy
C1   C   0.572594379345645   0.015015856162819   0.308800853538571   1.0
C2   C   0.549470939074382   0.991755317603619   0.496666674381544   1.0
C3   C   0.681724483526274   0.179173606591036   0.535038368769591   1.0
H4   H   0.808366241648102   0.091695098554183   0.500338042711839   1.0
H5   H   0.658658545313585   0.172970826723372   0.668554431330008   1.0
H6   H   0.683854602564168   0.409268947746938   0.461718593845781   1.0
H7   H   0.352379572166846   0.082304852811262   0.693007515681032   1.0
H8   H   0.553177339632654   0.762256418254864   0.567615799465315   1.0
H9   H   0.473063827166449   0.891997005673318   0.280284277568846   1.0
H10   H   0.572210358112493   0.246028033711376   0.237448621705333   1.0
H11   H   0.696419363033243   0.925823515111105   0.263808556799049   1.0
H12   H   0.339624392817043   0.292754877473321   0.503312484946328   1.0
H13   H   0.275419592610156   0.941608716274843   0.557192298538226   1.0
I14   I   0.405467430043565   0.429281356683212   0.924552476299716   1.0
I15   I   0.929388767639125   0.921327663797094   0.884483586830896   1.0
I16   I   0.096969988828874   0.669721962000139   0.400440931808575   1.0
N17   N   0.368088400644474   0.083715151247944   0.567506715675492   1.0
Sn18   Sn   0.043781775832947   0.334320793579551   0.106659770103853   1.0




# HOIP entry ID:                    0827
# Khazana ID:                       2677
# Organic cation source:            C.C.Stoumpos et al., J. Am. Chem. Soc. 137, 6804 (2015)
# Label:                            Isopropylammonium Tin Iodide
# Material class:                   Hybrid organic-inorganic perovskite ( MC_ino )
# Geometry class:                   Bulk crystalline materials ( GC_cry )
# Organic cation chemical formula:  (CH3)2CHNH3
# Number of atom types:             5
# Total number of atoms:            18
# Atom types:                       C H N  Sn I
# Number of each atom:              3 10 1  1 3
# Bandgap, HSE06 (eV):              3.188
# Bandgap, GGA (eV):                2.4196
# Kpoint for VBM:                   0.1, 0.25, 0.1
# Kpoint for CBM:                   0.1, 0, 0.5
# Dielectric constant, electronic:  4.017
# Dielectric constant, ionic:       6.596
# Dielectric constant, total:       10.613
# Refractive index:                 2.0042
# Atomization energy (eV/atom):     -4.3086
# Relative energy1 (eV/atom):       0.078
# Relative energy2 (eV/atom):       0.1849
# Volume of the unit cell (A^3):    297.41
# Density (g/cm^3):                 3.1242
# Tool:                             VASP
# Pseudopotential:                  PAW
# Note:                             ENCUT=400eV, k-spacing_relax=0.20/Angstrom, k-spacing_bandgap=0.15/Angstrom
# Created by:                       C.Kim, T.D.Huan, S.Krishnan, R. Ramprasad