data_1
_audit_creation_method   'Generated by vasp2cif'
_cell_length_a    6.99575284632
_cell_length_b    4.59426557436
_cell_length_c    9.29018786237
_cell_angle_alpha    85.1873830963
_cell_angle_beta    83.6109419329
_cell_angle_gamma    96.4756367318

_symmetry_space_group_name_H-M    'P 1'
loop_
_atom_site_label
_atom_site_type_symbol
_atom_site_fract_x
_atom_site_fract_y
_atom_site_fract_z
_atom_site_occupancy
C1   C   0.475125004306051   0.575449892381535   0.650229288974792   1.0
C2   C   0.437200067846327   0.435641871886013   0.511577502440268   1.0
C3   C   0.322828883143210   0.614969337951059   0.413863569109218   1.0
H4   H   0.191515374224281   0.661038120883276   0.478765347854541   1.0
H5   H   0.280865668937224   0.498529364491084   0.322494484695689   1.0
H6   H   0.406787417390071   0.825768808938612   0.369262813318649   1.0
H7   H   0.614242327495738   0.296315220205031   0.331892148263869   1.0
H8   H   0.362606331733545   0.212285912833465   0.538667656580969   1.0
H9   H   0.560203847413526   0.445794564422648   0.716763833368368   1.0
H10   H   0.552218629156933   0.798371940097290   0.626276483962513   1.0
H11   H   0.336493542905004   0.589356921196632   0.714676907136273   1.0
H12   H   0.716398628502013   0.597413703272956   0.391293867165608   1.0
H13   H   0.715423996788815   0.275041575381245   0.488723939505718   1.0
I14   I   0.522867236340971   0.363922585914167   0.043238650333656   1.0
I15   I   0.977368727348491   0.981664131168891   0.224335464161491   1.0
I16   I   0.949023438790839   0.061854140240293   0.708067017317532   1.0
N17   N   0.633130598681660   0.396346266470246   0.426193937380816   1.0
Sn18   Sn   0.947780278995275   0.500365642265429   0.968167088429908   1.0




# HOIP entry ID:                    0828
# Khazana ID:                       2678
# Organic cation source:            C.C.Stoumpos et al., J. Am. Chem. Soc. 137, 6804 (2015)
# Label:                            Isopropylammonium Tin Iodide
# Material class:                   Hybrid organic-inorganic perovskite ( MC_ino )
# Geometry class:                   Bulk crystalline materials ( GC_cry )
# Organic cation chemical formula:  (CH3)2CHNH3
# Number of atom types:             5
# Total number of atoms:            18
# Atom types:                       C H N  Sn I
# Number of each atom:              3 10 1  1 3
# Bandgap, HSE06 (eV):              3.3169
# Bandgap, GGA (eV):                2.4784
# Kpoint for VBM:                   -0.1, 0.0556, 0.5
# Kpoint for CBM:                   -0.2, 0, 0.375
# Dielectric constant, electronic:  4.1495
# Dielectric constant, ionic:       7.949
# Dielectric constant, total:       12.0985
# Refractive index:                 2.037
# Atomization energy (eV/atom):     -4.3056
# Relative energy1 (eV/atom):       0.081
# Relative energy2 (eV/atom):       0.1879
# Volume of the unit cell (A^3):    293.43
# Density (g/cm^3):                 3.1666
# Tool:                             VASP
# Pseudopotential:                  PAW
# Note:                             ENCUT=400eV, k-spacing_relax=0.20/Angstrom, k-spacing_bandgap=0.15/Angstrom
# Created by:                       C.Kim, T.D.Huan, S.Krishnan, R. Ramprasad