data_1
_audit_creation_method   'Generated by vasp2cif'
_cell_length_a    6.61498858744
_cell_length_b    6.58042928382
_cell_length_c    6.5605139208
_cell_angle_alpha    82.5304549082
_cell_angle_beta    99.6495635923
_cell_angle_gamma    96.0281450113

_symmetry_space_group_name_H-M    'P 1'
loop_
_atom_site_label
_atom_site_type_symbol
_atom_site_fract_x
_atom_site_fract_y
_atom_site_fract_z
_atom_site_occupancy
I1   I   0.449936824324629   0.906223590637104   0.013102217954394   1.0
I2   I   0.995144340000576   0.943149818539593   0.477595268948908   1.0
I3   I   0.937590539348347   0.442112596698454   0.949143244434572   1.0
H4   H   0.505647601427549   0.656491791634666   0.383747636278996   1.0
H5   H   0.713160018054411   0.394398979632303   0.322765596545975   1.0
H6   H   0.650168292402781   0.563315354795885   0.602606925256077   1.0
H7   H   0.204314358254356   0.440541636943163   0.480273326684116   1.0
H8   H   0.362979902703781   0.346825114121181   0.715548991967748   1.0
H9   H   0.310920900503743   0.612284752092128   0.669323294022767   1.0
H10   H   0.442979565090884   0.324268059901958   0.260292417982760   1.0
H11   H   0.584948577482072   0.216446468060160   0.499876910357777   1.0
C12   C   0.335114277613138   0.478413702143780   0.598143981803989   1.0
C13   C   0.570149034390154   0.351867287749801   0.385301297132172   1.0
Sn14   Sn   0.915846162688184   0.972357599672925   0.013150396889867   1.0
N15   N   0.524003505818374   0.527791034184546   0.492621425929938   1.0




# HOIP entry ID:                    0829
# Khazana ID:                       2679
# Organic cation source:            B.Saparov et al., Chem. Rev. 116, 4558 (2016)
# Label:                            Dimethylammonium Tin Iodide
# Material class:                   Hybrid organic-inorganic perovskite ( MC_ino )
# Geometry class:                   Bulk crystalline materials ( GC_cry )
# Organic cation chemical formula:  (CH3)2NH2
# Number of atom types:             5
# Total number of atoms:            15
# Atom types:                       C H N  Sn I
# Number of each atom:              2 8 1  1 3
# Bandgap, HSE06 (eV):              2.0284
# Bandgap, GGA (eV):                1.4496
# Kpoint for VBM:                   0.5, 0.5, 0.5
# Kpoint for CBM:                   0.5, 0.5, 0.3947
# Dielectric constant, electronic:  4.9265
# Dielectric constant, ionic:       5.8702
# Dielectric constant, total:       10.7968
# Refractive index:                 2.2196
# Atomization energy (eV/atom):     -4.1409
# Relative energy1 (eV/atom):       0.1436
# Relative energy2 (eV/atom):       0.2718
# Volume of the unit cell (A^3):    278.13
# Density (g/cm^3):                 3.257
# Tool:                             VASP
# Pseudopotential:                  PAW
# Note:                             ENCUT=400eV, k-spacing_relax=0.20/Angstrom, k-spacing_bandgap=0.15/Angstrom
# Created by:                       C.Kim, T.D.Huan, S.Krishnan, R. Ramprasad