data_1
_audit_creation_method   'Generated by vasp2cif'
_cell_length_a    6.58769317716
_cell_length_b    6.58313942946
_cell_length_c    6.57875475646
_cell_angle_alpha    84.3684437126
_cell_angle_beta    99.6237391899
_cell_angle_gamma    97.894247706

_symmetry_space_group_name_H-M    'P 1'
loop_
_atom_site_label
_atom_site_type_symbol
_atom_site_fract_x
_atom_site_fract_y
_atom_site_fract_z
_atom_site_occupancy
I1   I   0.450656591400599   0.959532992275442   0.944519343373470   1.0
I2   I   0.907412921389867   0.931112557194559   0.497319313427635   1.0
I3   I   0.980331362486418   0.457954946207100   0.002670033054499   1.0
H4   H   0.352563168844265   0.577436464480010   0.278855402252342   1.0
H5   H   0.651731306972265   0.402523352180304   0.278444964805532   1.0
H6   H   0.551693203067161   0.669467571048420   0.449616282243881   1.0
H7   H   0.188456943484924   0.371731028485084   0.544124884077016   1.0
H8   H   0.402994772356980   0.462378050152126   0.731983236018409   1.0
H9   H   0.234100978510616   0.638328276861028   0.594092048433181   1.0
H10   H   0.440577594318115   0.230086322537962   0.360235379204591   1.0
H11   H   0.651521086645064   0.328303857191750   0.547888767750187   1.0
C12   C   0.305880135261080   0.500723358183660   0.585910233408447   1.0
C13   C   0.555778195446969   0.361403728308552   0.399610597979117   1.0
Sn14   Sn   0.913955882559766   0.988829955264320   0.028042961488002   1.0
N15   N   0.442739147793500   0.541977347219167   0.419217446079464   1.0




# HOIP entry ID:                    0830
# Khazana ID:                       2680
# Organic cation source:            B.Saparov et al., Chem. Rev. 116, 4558 (2016)
# Label:                            Dimethylammonium Tin Iodide
# Material class:                   Hybrid organic-inorganic perovskite ( MC_ino )
# Geometry class:                   Bulk crystalline materials ( GC_cry )
# Organic cation chemical formula:  (CH3)2NH2
# Number of atom types:             5
# Total number of atoms:            15
# Atom types:                       C H N  Sn I
# Number of each atom:              2 8 1  1 3
# Bandgap, HSE06 (eV):              2.044
# Bandgap, GGA (eV):                1.4818
# Kpoint for VBM:                   0.5, 0.5, 0.5
# Kpoint for CBM:                   0.4474, 0.5, 0.4474
# Dielectric constant, electronic:  4.9517
# Dielectric constant, ionic:       6.1658
# Dielectric constant, total:       11.1174
# Refractive index:                 2.2252
# Atomization energy (eV/atom):     -4.1412
# Relative energy1 (eV/atom):       0.1433
# Relative energy2 (eV/atom):       0.2715
# Volume of the unit cell (A^3):    277.8
# Density (g/cm^3):                 3.2609
# Tool:                             VASP
# Pseudopotential:                  PAW
# Note:                             ENCUT=400eV, k-spacing_relax=0.20/Angstrom, k-spacing_bandgap=0.15/Angstrom
# Created by:                       C.Kim, T.D.Huan, S.Krishnan, R. Ramprasad