data_1
_audit_creation_method   'Generated by vasp2cif'
_cell_length_a    6.60392337262
_cell_length_b    6.59677093068
_cell_length_c    6.55945953389
_cell_angle_alpha    81.4352926584
_cell_angle_beta    99.1321609505
_cell_angle_gamma    96.1095068571

_symmetry_space_group_name_H-M    'P 1'
loop_
_atom_site_label
_atom_site_type_symbol
_atom_site_fract_x
_atom_site_fract_y
_atom_site_fract_z
_atom_site_occupancy
I1   I   0.444223996723862   0.915961964373864   0.015155028364442   1.0
I2   I   0.984788202667673   0.960436178846494   0.482101915051057   1.0
I3   I   0.930737727954749   0.450134681350396   0.943806098914061   1.0
H4   H   0.525036396971845   0.653773588697704   0.378140589108851   1.0
H5   H   0.667020581026904   0.357307986160262   0.294665751866916   1.0
H6   H   0.657915748728360   0.529710685126776   0.589618043455147   1.0
H7   H   0.201286850370870   0.491946205254185   0.483802465236147   1.0
H8   H   0.347622899529490   0.363947103655409   0.711005693648319   1.0
H9   H   0.347221217992493   0.638730861506322   0.674621753799400   1.0
H10   H   0.391448628692450   0.339300994816866   0.245896090077708   1.0
H11   H   0.520858754636571   0.198171750619418   0.475459553822081   1.0
C12   C   0.340306163987649   0.502584663430548   0.597461003244224   1.0
C13   C   0.526573810958501   0.339062775597778   0.365325630464492   1.0
Sn14   Sn   0.911300335555302   0.981049886887184   0.017395677966637   1.0
N15   N   0.524458844013173   0.519381187716003   0.482916567436827   1.0




# HOIP entry ID:                    0831
# Khazana ID:                       2681
# Organic cation source:            B.Saparov et al., Chem. Rev. 116, 4558 (2016)
# Label:                            Dimethylammonium Tin Iodide
# Material class:                   Hybrid organic-inorganic perovskite ( MC_ino )
# Geometry class:                   Bulk crystalline materials ( GC_cry )
# Organic cation chemical formula:  (CH3)2NH2
# Number of atom types:             5
# Total number of atoms:            15
# Atom types:                       C H N  Sn I
# Number of each atom:              2 8 1  1 3
# Bandgap, HSE06 (eV):              2.0272
# Bandgap, GGA (eV):                1.4611
# Kpoint for VBM:                   0.5, 0.5, 0.5
# Kpoint for CBM:                   0.5, 0.5, 0.3947
# Dielectric constant, electronic:  4.9186
# Dielectric constant, ionic:       5.3078
# Dielectric constant, total:       10.2264
# Refractive index:                 2.2178
# Atomization energy (eV/atom):     -4.1415
# Relative energy1 (eV/atom):       0.143
# Relative energy2 (eV/atom):       0.2712
# Volume of the unit cell (A^3):    277.99
# Density (g/cm^3):                 3.2586
# Tool:                             VASP
# Pseudopotential:                  PAW
# Note:                             ENCUT=400eV, k-spacing_relax=0.20/Angstrom, k-spacing_bandgap=0.15/Angstrom
# Created by:                       C.Kim, T.D.Huan, S.Krishnan, R. Ramprasad