data_1
_audit_creation_method   'Generated by vasp2cif'
_cell_length_a    6.61584651508
_cell_length_b    6.52466948886
_cell_length_c    6.52993770217
_cell_angle_alpha    88.0253562415
_cell_angle_beta    85.137574275
_cell_angle_gamma    79.2910465715

_symmetry_space_group_name_H-M    'P 1'
loop_
_atom_site_label
_atom_site_type_symbol
_atom_site_fract_x
_atom_site_fract_y
_atom_site_fract_z
_atom_site_occupancy
I1   I   0.070025467624816   0.961403713862438   0.502927759441320   1.0
I2   I   0.553627759163163   0.025751840781169   0.006352276896052   1.0
I3   I   0.985426215967493   0.454589053621646   0.014444313553064   1.0
H4   H   0.414254912580539   0.669509449634830   0.351981740248874   1.0
H5   H   0.291087917946335   0.345066256803051   0.358234978503944   1.0
H6   H   0.601982439839510   0.483147355194319   0.255177318642922   1.0
H7   H   0.563820043992450   0.648282463976322   0.678295000055904   1.0
H8   H   0.765907292613939   0.447086117888944   0.575526123390510   1.0
H9   H   0.739175720261940   0.706751528722194   0.470096277491883   1.0
H10   H   0.299986910475084   0.435330501232798   0.612790697040005   1.0
H11   H   0.498522023365226   0.231260601843537   0.509705458415660   1.0
C12   C   0.657429758583966   0.588575102466891   0.540173878413682   1.0
C13   C   0.390968282434912   0.373316856711355   0.474026333977591   1.0
Sn14   Sn   0.017122122075328   0.968703897417804   0.975567219444493   1.0
N15   N   0.514933133075303   0.534745259842694   0.389240624484124   1.0




# HOIP entry ID:                    0832
# Khazana ID:                       2682
# Organic cation source:            B.Saparov et al., Chem. Rev. 116, 4558 (2016)
# Label:                            Dimethylammonium Tin Iodide
# Material class:                   Hybrid organic-inorganic perovskite ( MC_ino )
# Geometry class:                   Bulk crystalline materials ( GC_cry )
# Organic cation chemical formula:  (CH3)2NH2
# Number of atom types:             5
# Total number of atoms:            15
# Atom types:                       C H N  Sn I
# Number of each atom:              2 8 1  1 3
# Bandgap, HSE06 (eV):              1.8386
# Bandgap, GGA (eV):                1.2672
# Kpoint for VBM:                   0.5, 0.5, 0.5
# Kpoint for CBM:                   0.5, 0.5, 0.5
# Dielectric constant, electronic:  5.2869
# Dielectric constant, ionic:       47.4562
# Dielectric constant, total:       52.7432
# Refractive index:                 2.2993
# Atomization energy (eV/atom):     -4.1392
# Relative energy1 (eV/atom):       0.1453
# Relative energy2 (eV/atom):       0.2735
# Volume of the unit cell (A^3):    275.92
# Density (g/cm^3):                 3.2831
# Tool:                             VASP
# Pseudopotential:                  PAW
# Note:                             ENCUT=400eV, k-spacing_relax=0.20/Angstrom, k-spacing_bandgap=0.15/Angstrom
# Created by:                       C.Kim, T.D.Huan, S.Krishnan, R. Ramprasad