data_1
_audit_creation_method   'Generated by vasp2cif'
_cell_length_a    6.62094288751
_cell_length_b    4.63444588887
_cell_length_c    8.96243794412
_cell_angle_alpha    88.0261080106
_cell_angle_beta    83.3492865316
_cell_angle_gamma    82.0600373147

_symmetry_space_group_name_H-M    'P 1'
loop_
_atom_site_label
_atom_site_type_symbol
_atom_site_fract_x
_atom_site_fract_y
_atom_site_fract_z
_atom_site_occupancy
I1   I   0.966958338382019   0.115546804867174   0.787452032235400   1.0
I2   I   0.468501384925073   0.736176503892356   0.058353446711930   1.0
I3   I   0.901475051053028   0.087364030310087   0.320131130334398   1.0
H4   H   0.322446937945899   0.277470154844235   0.540723059191167   1.0
H5   H   0.623329686452069   0.481550415422777   0.424219616716855   1.0
H6   H   0.487473027196072   0.801747713424755   0.402388869636479   1.0
H7   H   0.551145931037680   0.490071485593430   0.694646460315439   1.0
H8   H   0.670961795595380   0.796342761148732   0.622499058672515   1.0
H9   H   0.399063918115933   0.836811970883041   0.679220257198598   1.0
H10   H   0.299690184131382   0.412655646136789   0.351772366046824   1.0
H11   H   0.172726207834303   0.619060462515750   0.509080912703442   1.0
C12   C   0.532005232602227   0.692797585737075   0.629257790894792   1.0
C13   C   0.307898495804168   0.469978968527481   0.467458956117228   1.0
Sn14   Sn   0.929867566620099   0.604238539218869   0.040520903347733   1.0
N15   N   0.495866242304669   0.619386957477351   0.472025139877163   1.0




# HOIP entry ID:                    0833
# Khazana ID:                       2683
# Organic cation source:            B.Saparov et al., Chem. Rev. 116, 4558 (2016)
# Label:                            Dimethylammonium Tin Iodide
# Material class:                   Hybrid organic-inorganic perovskite ( MC_ino )
# Geometry class:                   Bulk crystalline materials ( GC_cry )
# Organic cation chemical formula:  (CH3)2NH2
# Number of atom types:             5
# Total number of atoms:            15
# Atom types:                       C H N  Sn I
# Number of each atom:              2 8 1  1 3
# Bandgap, HSE06 (eV):              2.9101
# Bandgap, GGA (eV):                2.2273
# Kpoint for VBM:                   0.5, 0.1667, 0.5
# Kpoint for CBM:                   0.5, 0.0556, 0
# Dielectric constant, electronic:  4.5043
# Dielectric constant, ionic:       8.2293
# Dielectric constant, total:       12.7337
# Refractive index:                 2.1223
# Atomization energy (eV/atom):     -4.1357
# Relative energy1 (eV/atom):       0.1488
# Relative energy2 (eV/atom):       0.277
# Volume of the unit cell (A^3):    270.49
# Density (g/cm^3):                 3.349
# Tool:                             VASP
# Pseudopotential:                  PAW
# Note:                             ENCUT=400eV, k-spacing_relax=0.20/Angstrom, k-spacing_bandgap=0.15/Angstrom
# Created by:                       C.Kim, T.D.Huan, S.Krishnan, R. Ramprasad