data_1
_audit_creation_method   'Generated by vasp2cif'
_cell_length_a    6.61857603898
_cell_length_b    4.64919336894
_cell_length_c    8.909803995
_cell_angle_alpha    92.8830041183
_cell_angle_beta    84.2459081478
_cell_angle_gamma    98.0721431533

_symmetry_space_group_name_H-M    'P 1'
loop_
_atom_site_label
_atom_site_type_symbol
_atom_site_fract_x
_atom_site_fract_y
_atom_site_fract_z
_atom_site_occupancy
I1   I   0.048714936631562   0.126590324276826   0.197464880514367   1.0
I2   I   0.541760825081340   0.743622966383334   0.926969484393915   1.0
I3   I   0.102927288703178   0.079032968986382   0.663716218188547   1.0
H4   H   0.677790874338150   0.265295286554562   0.437658387801434   1.0
H5   H   0.376054490400911   0.474022589656549   0.553169832072363   1.0
H6   H   0.519546742228549   0.782430086568553   0.590444327471403   1.0
H7   H   0.459342228524484   0.503951916874655   0.285044933777627   1.0
H8   H   0.357992085483566   0.822113201802395   0.361303162927122   1.0
H9   H   0.629776786984145   0.830419838862952   0.314467230513706   1.0
H10   H   0.683838530187231   0.365458578080457   0.635458981256825   1.0
H11   H   0.830035448493064   0.591028565320102   0.495419730369029   1.0
C12   C   0.487549219875888   0.699715531668595   0.356604301382909   1.0
C13   C   0.689201825684492   0.443505313829057   0.521744079120623   1.0
Sn14   Sn   0.079943586590346   0.606348066105753   0.943817075634243   1.0
N15   N   0.509125130793024   0.607474765029828   0.514087374575944   1.0




# HOIP entry ID:                    0834
# Khazana ID:                       2684
# Organic cation source:            B.Saparov et al., Chem. Rev. 116, 4558 (2016)
# Label:                            Dimethylammonium Tin Iodide
# Material class:                   Hybrid organic-inorganic perovskite ( MC_ino )
# Geometry class:                   Bulk crystalline materials ( GC_cry )
# Organic cation chemical formula:  (CH3)2NH2
# Number of atom types:             5
# Total number of atoms:            15
# Atom types:                       C H N  Sn I
# Number of each atom:              2 8 1  1 3
# Bandgap, HSE06 (eV):              2.9147
# Bandgap, GGA (eV):                2.2307
# Kpoint for VBM:                   0.5, 0.1667, 0.5
# Kpoint for CBM:                   0.5, 0.0556, 0
# Dielectric constant, electronic:  4.5287
# Dielectric constant, ionic:       10.102
# Dielectric constant, total:       14.6307
# Refractive index:                 2.1281
# Atomization energy (eV/atom):     -4.1361
# Relative energy1 (eV/atom):       0.1484
# Relative energy2 (eV/atom):       0.2767
# Volume of the unit cell (A^3):    269.9
# Density (g/cm^3):                 3.3563
# Tool:                             VASP
# Pseudopotential:                  PAW
# Note:                             ENCUT=400eV, k-spacing_relax=0.20/Angstrom, k-spacing_bandgap=0.15/Angstrom
# Created by:                       C.Kim, T.D.Huan, S.Krishnan, R. Ramprasad