data_1
_audit_creation_method   'Generated by vasp2cif'
_cell_length_a    8.40640003317
_cell_length_b    4.73380408821
_cell_length_c    7.4835113805
_cell_angle_alpha    103.344482598
_cell_angle_beta    95.6953196643
_cell_angle_gamma    103.929506044

_symmetry_space_group_name_H-M    'P 1'
loop_
_atom_site_label
_atom_site_type_symbol
_atom_site_fract_x
_atom_site_fract_y
_atom_site_fract_z
_atom_site_occupancy
I1   I   0.247456919530506   0.105957171781547   0.948907754563379   1.0
I2   I   0.947087060359358   0.370661675726353   0.456708471605623   1.0
I3   I   0.676527907259498   0.816691277939235   0.866021697185118   1.0
H4   H   0.411831161030264   0.608825804132714   0.329297679515470   1.0
H5   H   0.539725837542534   0.015831619354351   0.615106643219093   1.0
H6   H   0.600384706627644   0.250288382191407   0.487974312277395   1.0
H7   H   0.250171240122512   0.930798844262320   0.501884491566969   1.0
H8   H   0.348068793252693   0.325154997745926   0.591087125781478   1.0
H9   H   0.303980874281876   0.153743000224274   0.343652249078886   1.0
H10   H   0.634445335810192   0.753675505798526   0.356356868337286   1.0
H11   H   0.500325806297113   0.864459829209913   0.201861790498903   1.0
C12   C   0.339285365621670   0.124385015616234   0.480592829382978   1.0
C13   C   0.514511202089466   0.800916567996445   0.332081350877821   1.0
Sn14   Sn   0.970918173383659   0.489202335013154   0.876578839084900   1.0
N15   N   0.507839616790996   0.061927973007592   0.488927897024588   1.0




# HOIP entry ID:                    0835
# Khazana ID:                       2685
# Organic cation source:            B.Saparov et al., Chem. Rev. 116, 4558 (2016)
# Label:                            Dimethylammonium Tin Iodide
# Material class:                   Hybrid organic-inorganic perovskite ( MC_ino )
# Geometry class:                   Bulk crystalline materials ( GC_cry )
# Organic cation chemical formula:  (CH3)2NH2
# Number of atom types:             5
# Total number of atoms:            15
# Atom types:                       C H N  Sn I
# Number of each atom:              2 8 1  1 3
# Bandgap, HSE06 (eV):              3.0347
# Bandgap, GGA (eV):                2.2641
# Kpoint for VBM:                   0.5, 0.0556, 0.5
# Kpoint for CBM:                   0.4, 0, 0.4167
# Dielectric constant, electronic:  4.2606
# Dielectric constant, ionic:       9.6582
# Dielectric constant, total:       13.9188
# Refractive index:                 2.0641
# Atomization energy (eV/atom):     -4.1308
# Relative energy1 (eV/atom):       0.1537
# Relative energy2 (eV/atom):       0.2819
# Volume of the unit cell (A^3):    277.44
# Density (g/cm^3):                 3.2651
# Tool:                             VASP
# Pseudopotential:                  PAW
# Note:                             ENCUT=400eV, k-spacing_relax=0.20/Angstrom, k-spacing_bandgap=0.15/Angstrom
# Created by:                       C.Kim, T.D.Huan, S.Krishnan, R. Ramprasad