data_1
_audit_creation_method   'Generated by vasp2cif'
_cell_length_a    6.72923255168
_cell_length_b    4.74208354877
_cell_length_c    8.52575823078
_cell_angle_alpha    77.668313047
_cell_angle_beta    86.4289922694
_cell_angle_gamma    81.7356297126

_symmetry_space_group_name_H-M    'P 1'
loop_
_atom_site_label
_atom_site_type_symbol
_atom_site_fract_x
_atom_site_fract_y
_atom_site_fract_z
_atom_site_occupancy
I1   I   0.955218086182001   0.222413296925801   0.793964270067796   1.0
I2   I   0.470507991552495   0.798988792884138   0.052635146560029   1.0
I3   I   0.911064661200719   0.999028902458491   0.354125878470541   1.0
H4   H   0.335514058696326   0.143670686023867   0.548075665624744   1.0
H5   H   0.647229059053402   0.373001739415741   0.498406648939003   1.0
H6   H   0.518292821195331   0.674529775698289   0.401486066177853   1.0
H7   H   0.462482092327470   0.390620795150198   0.747263712246209   1.0
H8   H   0.561300979680702   0.724357134506690   0.671731705446135   1.0
H9   H   0.300069159742208   0.700080527975757   0.647662379716394   1.0
H10   H   0.411717663926616   0.244850979207371   0.339038351232951   1.0
H11   H   0.213785796261156   0.464733084317615   0.425301682946760   1.0
C12   C   0.452988218997625   0.586202325330319   0.652427830669779   1.0
C13   C   0.355265888849935   0.321672005520966   0.447151531402717   1.0
Sn14   Sn   0.922824302292277   0.644603572742632   0.058407148384532   1.0
N15   N   0.505962915596385   0.495298235275676   0.493433126233541   1.0




# HOIP entry ID:                    0836
# Khazana ID:                       2686
# Organic cation source:            B.Saparov et al., Chem. Rev. 116, 4558 (2016)
# Label:                            Dimethylammonium Tin Iodide
# Material class:                   Hybrid organic-inorganic perovskite ( MC_ino )
# Geometry class:                   Bulk crystalline materials ( GC_cry )
# Organic cation chemical formula:  (CH3)2NH2
# Number of atom types:             5
# Total number of atoms:            15
# Atom types:                       C H N  Sn I
# Number of each atom:              2 8 1  1 3
# Bandgap, HSE06 (eV):              2.9326
# Bandgap, GGA (eV):                2.1441
# Kpoint for VBM:                   0, 0.0556, 0.5
# Kpoint for CBM:                   0.4167, 0, 0.4
# Dielectric constant, electronic:  4.6907
# Dielectric constant, ionic:       13.9191
# Dielectric constant, total:       18.6098
# Refractive index:                 2.1658
# Atomization energy (eV/atom):     -4.1367
# Relative energy1 (eV/atom):       0.1478
# Relative energy2 (eV/atom):       0.276
# Volume of the unit cell (A^3):    262.88
# Density (g/cm^3):                 3.446
# Tool:                             VASP
# Pseudopotential:                  PAW
# Note:                             ENCUT=400eV, k-spacing_relax=0.20/Angstrom, k-spacing_bandgap=0.15/Angstrom
# Created by:                       C.Kim, T.D.Huan, S.Krishnan, R. Ramprasad