data_1
_audit_creation_method   'Generated by vasp2cif'
_cell_length_a    6.63296938534
_cell_length_b    6.60212878902
_cell_length_c    6.58846465222
_cell_angle_alpha    89.8266951126
_cell_angle_beta    98.8098703495
_cell_angle_gamma    82.0148036432

_symmetry_space_group_name_H-M    'P 1'
loop_
_atom_site_label
_atom_site_type_symbol
_atom_site_fract_x
_atom_site_fract_y
_atom_site_fract_z
_atom_site_occupancy
C1   C   0.367760682589193   0.413103159102704   0.593120896848376   1.0
C2   C   0.515979603899169   0.516078950965223   0.493010571632404   1.0
H3   H   0.688879015690588   0.498068466886046   0.256576797118093   1.0
H4   H   0.677309382349982   0.762822670774376   0.511413945432771   1.0
H5   H   0.351895602261415   0.262592990055524   0.530079308109691   1.0
H6   H   0.216334776400025   0.507858981470726   0.568280785405285   1.0
H7   H   0.419875079563248   0.396776972807281   0.758946221810760   1.0
H8   H   0.522830401417870   0.745983637626914   0.698940923462480   1.0
H9   H   0.542105227244150   0.302426305496127   0.272291300313654   1.0
I10   I   0.999363888953006   0.982837520752568   0.522401092212569   1.0
I11   I   0.999843171548235   0.480990134071682   0.019316520387711   1.0
I12   I   0.495874215257771   0.959560690638348   0.048793432459306   1.0
N13   N   0.585528337382222   0.435749847047042   0.328712154094049   1.0
N14   N   0.573179614825122   0.688234326546961   0.569680252682844   1.0
Sn15   Sn   0.028181000618055   0.017195345758495   0.988315798030037   1.0




# HOIP entry ID:                    0837
# Khazana ID:                       2687
# Organic cation source:            C.C.Stoumpos et al., J. Am. Chem. Soc. 137, 6804 (2015)
# Label:                            Acetamidinium Tin Iodide
# Material class:                   Hybrid organic-inorganic perovskite ( MC_ino )
# Geometry class:                   Bulk crystalline materials ( GC_cry )
# Organic cation chemical formula:  CH3C(NH2)2
# Number of atom types:             5
# Total number of atoms:            15
# Atom types:                       C H N  Sn I
# Number of each atom:              2 7 2  1 3
# Bandgap, HSE06 (eV):              1.9003
# Bandgap, GGA (eV):                1.324
# Kpoint for VBM:                   0.5, 0.5, 0.5
# Kpoint for CBM:                   0.4474, 0.5, 0.4474
# Dielectric constant, electronic:  5.0675
# Dielectric constant, ionic:       6.8409
# Dielectric constant, total:       11.9084
# Refractive index:                 2.2511
# Atomization energy (eV/atom):     -4.4479
# Relative energy1 (eV/atom):       0.2627
# Relative energy2 (eV/atom):       0.3909
# Volume of the unit cell (A^3):    282.26
# Density (g/cm^3):                 3.2858
# Tool:                             VASP
# Pseudopotential:                  PAW
# Note:                             ENCUT=400eV, k-spacing_relax=0.20/Angstrom, k-spacing_bandgap=0.15/Angstrom
# Created by:                       C.Kim, T.D.Huan, S.Krishnan, R. Ramprasad