data_1
_audit_creation_method   'Generated by vasp2cif'
_cell_length_a    6.64249393519
_cell_length_b    6.61167787061
_cell_length_c    6.61654939546
_cell_angle_alpha    90.0085595414
_cell_angle_beta    98.722936198
_cell_angle_gamma    98.6726552518

_symmetry_space_group_name_H-M    'P 1'
loop_
_atom_site_label
_atom_site_type_symbol
_atom_site_fract_x
_atom_site_fract_y
_atom_site_fract_z
_atom_site_occupancy
C1   C   0.635099845710435   0.508476733814142   0.525552225115973   1.0
C2   C   0.494974927310203   0.615265160882970   0.630666197457785   1.0
H3   H   0.327923536446157   0.596302377982909   0.870834474310612   1.0
H4   H   0.328859659098732   0.856330574446055   0.611180884544716   1.0
H5   H   0.745539694549095   0.444253234097495   0.637189446509304   1.0
H6   H   0.719167343803839   0.612589266376276   0.428558674874402   1.0
H7   H   0.542412998054346   0.382468179098552   0.429240819897551   1.0
H8   H   0.480388592233553   0.841288051000149   0.421789737025691   1.0
H9   H   0.478691008840670   0.406034774917906   0.856302363284584   1.0
I10   I   0.011145279655750   0.082168998093913   0.589563410817000   1.0
I11   I   0.012801404200530   0.573204773871531   0.100136622136674   1.0
I12   I   0.508733286521505   0.055265025172879   0.070501506465185   1.0
N13   N   0.432046589795554   0.536977506903902   0.798801811328353   1.0
N14   N   0.432945508416957   0.783804010650968   0.552248967600399   1.0
Sn15   Sn   0.976340325362706   0.109621332690281   0.126442858631755   1.0




# HOIP entry ID:                    0838
# Khazana ID:                       2688
# Organic cation source:            C.C.Stoumpos et al., J. Am. Chem. Soc. 137, 6804 (2015)
# Label:                            Acetamidinium Tin Iodide
# Material class:                   Hybrid organic-inorganic perovskite ( MC_ino )
# Geometry class:                   Bulk crystalline materials ( GC_cry )
# Organic cation chemical formula:  CH3C(NH2)2
# Number of atom types:             5
# Total number of atoms:            15
# Atom types:                       C H N  Sn I
# Number of each atom:              2 7 2  1 3
# Bandgap, HSE06 (eV):              1.9339
# Bandgap, GGA (eV):                1.3568
# Kpoint for VBM:                   0.5, 0.5, 0.5
# Kpoint for CBM:                   0.4474, 0.5, 0.4474
# Dielectric constant, electronic:  4.9918
# Dielectric constant, ionic:       6.0608
# Dielectric constant, total:       11.0526
# Refractive index:                 2.2342
# Atomization energy (eV/atom):     -4.4483
# Relative energy1 (eV/atom):       0.2623
# Relative energy2 (eV/atom):       0.3905
# Volume of the unit cell (A^3):    283.86
# Density (g/cm^3):                 3.2673
# Tool:                             VASP
# Pseudopotential:                  PAW
# Note:                             ENCUT=400eV, k-spacing_relax=0.20/Angstrom, k-spacing_bandgap=0.15/Angstrom
# Created by:                       C.Kim, T.D.Huan, S.Krishnan, R. Ramprasad