data_1
_audit_creation_method   'Generated by vasp2cif'
_cell_length_a    6.60679205044
_cell_length_b    6.5893371641
_cell_length_c    6.54486266797
_cell_angle_alpha    85.4752782222
_cell_angle_beta    98.4753283733
_cell_angle_gamma    89.3743259737

_symmetry_space_group_name_H-M    'P 1'
loop_
_atom_site_label
_atom_site_type_symbol
_atom_site_fract_x
_atom_site_fract_y
_atom_site_fract_z
_atom_site_occupancy
C1   C   0.571681701303945   0.471432888485445   0.428449142228246   1.0
C2   C   0.514340980898240   0.626729190510574   0.566078033449692   1.0
H3   H   0.326469031139368   0.685355807200423   0.781255362800650   1.0
H4   H   0.588150335857797   0.905863607770684   0.672890736131215   1.0
H5   H   0.593417876242874   0.544234213798845   0.277544775411926   1.0
H6   H   0.454922089311289   0.356459689609537   0.407159181515240   1.0
H7   H   0.716966940948311   0.396462699217302   0.499690888829086   1.0
H8   H   0.725905072026613   0.828756447946191   0.485034004671611   1.0
H9   H   0.292701123293490   0.454283049998921   0.672413701674458   1.0
I10   I   0.080315758506423   0.099097484670295   0.558790374462355   1.0
I11   I   0.038579540014794   0.622252554994276   0.090101599656641   1.0
I12   I   0.569730916414123   0.096193807832805   0.023571258331167   1.0
N13   N   0.370273268467564   0.586368182646268   0.683532063979186   1.0
N14   N   0.611954693907805   0.801492144954771   0.571088301717815   1.0
Sn15   Sn   0.033290671667309   0.085268230363688   0.082260575140722   1.0




# HOIP entry ID:                    0839
# Khazana ID:                       2689
# Organic cation source:            C.C.Stoumpos et al., J. Am. Chem. Soc. 137, 6804 (2015)
# Label:                            Acetamidinium Tin Iodide
# Material class:                   Hybrid organic-inorganic perovskite ( MC_ino )
# Geometry class:                   Bulk crystalline materials ( GC_cry )
# Organic cation chemical formula:  CH3C(NH2)2
# Number of atom types:             5
# Total number of atoms:            15
# Atom types:                       C H N  Sn I
# Number of each atom:              2 7 2  1 3
# Bandgap, HSE06 (eV):              1.7999
# Bandgap, GGA (eV):                1.2292
# Kpoint for VBM:                   0.5, 0.5, 0.5
# Kpoint for CBM:                   0.5, 0.5, 0.5
# Dielectric constant, electronic:  5.2253
# Dielectric constant, ionic:       11.347
# Dielectric constant, total:       16.5724
# Refractive index:                 2.2859
# Atomization energy (eV/atom):     -4.4456
# Relative energy1 (eV/atom):       0.265
# Relative energy2 (eV/atom):       0.3932
# Volume of the unit cell (A^3):    280.86
# Density (g/cm^3):                 3.3022
# Tool:                             VASP
# Pseudopotential:                  PAW
# Note:                             ENCUT=400eV, k-spacing_relax=0.20/Angstrom, k-spacing_bandgap=0.15/Angstrom
# Created by:                       C.Kim, T.D.Huan, S.Krishnan, R. Ramprasad