data_1
_audit_creation_method   'Generated by vasp2cif'
_cell_length_a    6.79766241603
_cell_length_b    4.5357662288
_cell_length_c    8.94105709099
_cell_angle_alpha    90.0734118399
_cell_angle_beta    95.6513212448
_cell_angle_gamma    102.550374251

_symmetry_space_group_name_H-M    'P 1'
loop_
_atom_site_label
_atom_site_type_symbol
_atom_site_fract_x
_atom_site_fract_y
_atom_site_fract_z
_atom_site_occupancy
C1   C   0.426006658992442   0.873506843955610   0.604818387851800   1.0
C2   C   0.539040295000000   0.820944916593575   0.475275353729238   1.0
H3   H   0.395864621101502   0.072236329561626   0.331734957203054   1.0
H4   H   0.571779568489987   0.908366580043904   0.252276926028365   1.0
H5   H   0.333184570507655   0.658655133613500   0.636962748099137   1.0
H6   H   0.532405898748081   0.964294101230777   0.702360125004567   1.0
H7   H   0.326747284714273   0.028331782339194   0.575425434446259   1.0
H8   H   0.757579841903528   0.608607124307603   0.409732417233997   1.0
H9   H   0.709689824694152   0.565186774126985   0.595379920707302   1.0
I10   I   0.567535185584269   0.535681455213300   0.008720301310454   1.0
I11   I   0.047911116949415   0.264218204147902   0.295719878423014   1.0
I12   I   0.995317348184606   0.237127354808990   0.758662422537213   1.0
N13   N   0.506650779519525   0.951832049802647   0.345754532110988   1.0
N14   N   0.670558125235914   0.641223507721001   0.492148190004343   1.0
Sn15   Sn   0.020978880374699   0.724087842533343   0.018458405310263   1.0




# HOIP entry ID:                    0840
# Khazana ID:                       2690
# Organic cation source:            C.C.Stoumpos et al., J. Am. Chem. Soc. 137, 6804 (2015)
# Label:                            Acetamidinium Tin Iodide
# Material class:                   Hybrid organic-inorganic perovskite ( MC_ino )
# Geometry class:                   Bulk crystalline materials ( GC_cry )
# Organic cation chemical formula:  CH3C(NH2)2
# Number of atom types:             5
# Total number of atoms:            15
# Atom types:                       C H N  Sn I
# Number of each atom:              2 7 2  1 3
# Bandgap, HSE06 (eV):              2.9256
# Bandgap, GGA (eV):                2.1813
# Kpoint for VBM:                   0, 0.0556, 0.5
# Kpoint for CBM:                   0.5, 0.0556, 0
# Dielectric constant, electronic:  4.5217
# Dielectric constant, ionic:       6.6379
# Dielectric constant, total:       11.1596
# Refractive index:                 2.1264
# Atomization energy (eV/atom):     -4.4483
# Relative energy1 (eV/atom):       0.2623
# Relative energy2 (eV/atom):       0.3905
# Volume of the unit cell (A^3):    267.71
# Density (g/cm^3):                 3.4644
# Tool:                             VASP
# Pseudopotential:                  PAW
# Note:                             ENCUT=400eV, k-spacing_relax=0.20/Angstrom, k-spacing_bandgap=0.15/Angstrom
# Created by:                       C.Kim, T.D.Huan, S.Krishnan, R. Ramprasad