data_1
_audit_creation_method   'Generated by vasp2cif'
_cell_length_a    6.74450743081
_cell_length_b    4.53769501781
_cell_length_c    9.5870677923
_cell_angle_alpha    108.362815205
_cell_angle_beta    78.7085329977
_cell_angle_gamma    91.964799343

_symmetry_space_group_name_H-M    'P 1'
loop_
_atom_site_label
_atom_site_type_symbol
_atom_site_fract_x
_atom_site_fract_y
_atom_site_fract_z
_atom_site_occupancy
C1   C   0.476514634185556   0.527606718852681   0.639003464390555   1.0
C2   C   0.472651549887999   0.319973105238724   0.483754030981935   1.0
H3   H   0.354702785625420   0.262094944538717   0.294762905721441   1.0
H4   H   0.255487889704192   0.576369816098413   0.450179715588192   1.0
H5   H   0.454520544557504   0.392539530920580   0.716770406124709   1.0
H6   H   0.625116399778314   0.632710238420998   0.641910131530828   1.0
H7   H   0.360237802746752   0.711804738512889   0.675722261155990   1.0
H8   H   0.600273808576681   0.922865695630705   0.321735734363173   1.0
H9   H   0.694167935236543   0.031268182367015   0.487327990180475   1.0
I10   I   0.502099847391584   0.763298425795703   0.034559962640245   1.0
I11   I   0.960799263375790   0.430259433873523   0.208330435754867   1.0
I12   I   0.972600022701016   0.072905776981500   0.676925242687304   1.0
N13   N   0.357172143410686   0.395194774516682   0.402330294020985   1.0
N14   N   0.588900563100403   0.062984471108692   0.429773186651765   1.0
Sn15   Sn   0.954004809721546   0.764264147143230   0.955554238207540   1.0




# HOIP entry ID:                    0841
# Khazana ID:                       2691
# Organic cation source:            C.C.Stoumpos et al., J. Am. Chem. Soc. 137, 6804 (2015)
# Label:                            Acetamidinium Tin Iodide
# Material class:                   Hybrid organic-inorganic perovskite ( MC_ino )
# Geometry class:                   Bulk crystalline materials ( GC_cry )
# Organic cation chemical formula:  CH3C(NH2)2
# Number of atom types:             5
# Total number of atoms:            15
# Atom types:                       C H N  Sn I
# Number of each atom:              2 7 2  1 3
# Bandgap, HSE06 (eV):              3.1188
# Bandgap, GGA (eV):                2.3598
# Kpoint for VBM:                   0.3333, 0.1667, 0.3
# Kpoint for CBM:                   0.5, 0.5, 0.5
# Dielectric constant, electronic:  4.4585
# Dielectric constant, ionic:       7.2584
# Dielectric constant, total:       11.7169
# Refractive index:                 2.1115
# Atomization energy (eV/atom):     -4.4448
# Relative energy1 (eV/atom):       0.2658
# Relative energy2 (eV/atom):       0.3941
# Volume of the unit cell (A^3):    272.96
# Density (g/cm^3):                 3.3978
# Tool:                             VASP
# Pseudopotential:                  PAW
# Note:                             ENCUT=400eV, k-spacing_relax=0.20/Angstrom, k-spacing_bandgap=0.15/Angstrom
# Created by:                       C.Kim, T.D.Huan, S.Krishnan, R. Ramprasad