data_1
_audit_creation_method   'Generated by vasp2cif'
_cell_length_a    8.27325497194
_cell_length_b    4.47840653688
_cell_length_c    7.59123670823
_cell_angle_alpha    90.5096060086
_cell_angle_beta    92.7930590284
_cell_angle_gamma    79.2267522496

_symmetry_space_group_name_H-M    'P 1'
loop_
_atom_site_label
_atom_site_type_symbol
_atom_site_fract_x
_atom_site_fract_y
_atom_site_fract_z
_atom_site_occupancy
C1   C   0.616706763182270   0.901454683218046   0.515908177682995   1.0
C2   C   0.490748531645172   0.713802410318399   0.460095579955424   1.0
H3   H   0.370733728999492   0.776514653847387   0.689742617612571   1.0
H4   H   0.288992330530178   0.547090501382151   0.536250258620701   1.0
H5   H   0.729257392345631   0.749843042099538   0.564969400003446   1.0
H6   H   0.648336396255952   0.027615732669027   0.404079173524717   1.0
H7   H   0.573380437167321   0.057845962546714   0.621982359109682   1.0
H8   H   0.413385799054248   0.461351892262666   0.252943966391316   1.0
H9   H   0.581686619585240   0.622291975452033   0.214417121185888   1.0
I10   I   0.024468178527367   0.287084351471804   0.435718884159217   1.0
I11   I   0.300184932809890   0.183696861682298   0.953412895064867   1.0
I12   I   0.759602684403563   0.408816725544841   0.925652646592453   1.0
N13   N   0.380082480127467   0.665420969386091   0.571653658852641   1.0
N14   N   0.495367830205976   0.590426610664737   0.300166814292360   1.0
Sn15   Sn   0.018325895160313   0.903433627454261   0.095116446951502   1.0




# HOIP entry ID:                    0842
# Khazana ID:                       2692
# Organic cation source:            C.C.Stoumpos et al., J. Am. Chem. Soc. 137, 6804 (2015)
# Label:                            Acetamidinium Tin Iodide
# Material class:                   Hybrid organic-inorganic perovskite ( MC_ino )
# Geometry class:                   Bulk crystalline materials ( GC_cry )
# Organic cation chemical formula:  CH3C(NH2)2
# Number of atom types:             5
# Total number of atoms:            15
# Atom types:                       C H N  Sn I
# Number of each atom:              2 7 2  1 3
# Bandgap, HSE06 (eV):              3.1226
# Bandgap, GGA (eV):                2.3034
# Kpoint for VBM:                   -0.3, -0.1667, 0.1
# Kpoint for CBM:                   0.2895, 0.5, 0
# Dielectric constant, electronic:  4.2272
# Dielectric constant, ionic:       4.4896
# Dielectric constant, total:       8.7168
# Refractive index:                 2.056
# Atomization energy (eV/atom):     -4.4361
# Relative energy1 (eV/atom):       0.2745
# Relative energy2 (eV/atom):       0.4027
# Volume of the unit cell (A^3):    275.98
# Density (g/cm^3):                 3.3606
# Tool:                             VASP
# Pseudopotential:                  PAW
# Note:                             ENCUT=400eV, k-spacing_relax=0.20/Angstrom, k-spacing_bandgap=0.15/Angstrom
# Created by:                       C.Kim, T.D.Huan, S.Krishnan, R. Ramprasad