data_1
_audit_creation_method   'Generated by vasp2cif'
_cell_length_a    6.49388449539
_cell_length_b    6.32348766406
_cell_length_c    6.40828916913
_cell_angle_alpha    89.9773479029
_cell_angle_beta    92.1050488359
_cell_angle_gamma    89.8487212647

_symmetry_space_group_name_H-M    'P 1'
loop_
_atom_site_label
_atom_site_type_symbol
_atom_site_fract_x
_atom_site_fract_y
_atom_site_fract_z
_atom_site_occupancy
I1   I   0.393581779395731   0.997423467647941   0.046414046514073   1.0
I2   I   0.864917875458140   0.000058456619065   0.515546770216865   1.0
I3   I   0.864210920624679   0.498901904509367   0.980366702568915   1.0
H4   H   0.549742194863491   0.500765397158879   0.289868636144611   1.0
H5   H   0.632406050131614   0.370373001854034   0.502119283512670   1.0
H6   H   0.626873870657796   0.635356139000656   0.501114723926719   1.0
H7   H   0.256046155609610   0.352563309125649   0.472938103462987   1.0
H8   H   0.340387055045923   0.498233489381008   0.700489182336163   1.0
H9   H   0.249000134124458   0.636539313628369   0.470580165610606   1.0
C10   C   0.330362382760576   0.496778512810678   0.530303912040765   1.0
Sn11   Sn   0.931565594398357   0.999414654318592   0.009318447217979   1.0
N12   N   0.547795986929586   0.501152353945791   0.451140026446744   1.0




# HOIP entry ID:                    0843
# Khazana ID:                       2693
# Organic cation source:            T.D.Huan et al., Phys. Rev. B 93,094105(2016)
# Label:                            Methylammonium Tin Iodide
# Material class:                   Hybrid organic-inorganic perovskite ( MC_ino )
# Geometry class:                   Bulk crystalline materials ( GC_cry )
# Organic cation chemical formula:  CH3NH3
# Number of atom types:             5
# Total number of atoms:            12
# Atom types:                       C H N  Sn I
# Number of each atom:              1 6 1  1 3
# Bandgap, HSE06 (eV):              1.5626
# Bandgap, GGA (eV):                1.0257
# Kpoint for VBM:                   0.5, 0.5, 0.5
# Kpoint for CBM:                   0.5, 0.5, 0.5
# Dielectric constant, electronic:  5.8131
# Dielectric constant, ionic:       19.7083
# Dielectric constant, total:       25.5214
# Refractive index:                 2.411
# Atomization energy (eV/atom):     -3.9093
# Relative energy1 (eV/atom):       0.2791
# Relative energy2 (eV/atom):       0.4394
# Volume of the unit cell (A^3):    262.97
# Density (g/cm^3):                 3.3562
# Tool:                             VASP
# Pseudopotential:                  PAW
# Note:                             ENCUT=400eV, k-spacing_relax=0.20/Angstrom, k-spacing_bandgap=0.15/Angstrom
# Created by:                       C.Kim, T.D.Huan, S.Krishnan, R. Ramprasad