data_1
_audit_creation_method   'Generated by vasp2cif'
_cell_length_a    6.39580373909
_cell_length_b    6.37875432782
_cell_length_c    6.48928854219
_cell_angle_alpha    86.7973117494
_cell_angle_beta    85.8877145142
_cell_angle_gamma    92.3018819194

_symmetry_space_group_name_H-M    'P 1'
loop_
_atom_site_label
_atom_site_type_symbol
_atom_site_fract_x
_atom_site_fract_y
_atom_site_fract_z
_atom_site_occupancy
I1   I   0.027875302260094   0.033932587459197   0.605794690234157   1.0
I2   I   0.493132491925928   0.985531889205111   0.123885444472499   1.0
I3   I   0.964539225402642   0.507949011013017   0.124901602840073   1.0
H4   H   0.318642294094857   0.361824519923900   0.482700141645133   1.0
H5   H   0.556002248780906   0.411932375314319   0.358772783835838   1.0
H6   H   0.389947036395454   0.604196042491992   0.379465473753187   1.0
H7   H   0.588057252530370   0.385009591364684   0.731986908371920   1.0
H8   H   0.658715915551450   0.645572452803809   0.624334113646198   1.0
H9   H   0.405265914897740   0.590034484452154   0.757771947721567   1.0
C10   C   0.530897294597473   0.527905418811979   0.659557190475958   1.0
Sn11   Sn   0.982576440031766   0.999614480986830   0.074524796082429   1.0
N12   N   0.442338583531256   0.472647146173065   0.457314906921021   1.0




# HOIP entry ID:                    0844
# Khazana ID:                       2694
# Organic cation source:            T.D.Huan et al., Phys. Rev. B 93,094105(2016)
# Label:                            Methylammonium Tin Iodide
# Material class:                   Hybrid organic-inorganic perovskite ( MC_ino )
# Geometry class:                   Bulk crystalline materials ( GC_cry )
# Organic cation chemical formula:  CH3NH3
# Number of atom types:             5
# Total number of atoms:            12
# Atom types:                       C H N  Sn I
# Number of each atom:              1 6 1  1 3
# Bandgap, HSE06 (eV):              1.5456
# Bandgap, GGA (eV):                1.063
# Kpoint for VBM:                   0.5, 0.5, 0.5
# Kpoint for CBM:                   0.5, 0.5, 0.4737
# Dielectric constant, electronic:  5.8395
# Dielectric constant, ionic:       23.5034
# Dielectric constant, total:       29.3429
# Refractive index:                 2.4165
# Atomization energy (eV/atom):     -3.9092
# Relative energy1 (eV/atom):       0.2792
# Relative energy2 (eV/atom):       0.4394
# Volume of the unit cell (A^3):    263.39
# Density (g/cm^3):                 3.3508
# Tool:                             VASP
# Pseudopotential:                  PAW
# Note:                             ENCUT=400eV, k-spacing_relax=0.20/Angstrom, k-spacing_bandgap=0.15/Angstrom
# Created by:                       C.Kim, T.D.Huan, S.Krishnan, R. Ramprasad