data_1
_audit_creation_method   'Generated by vasp2cif'
_cell_length_a    6.71863668034
_cell_length_b    4.67951995915
_cell_length_c    8.3815892993
_cell_angle_alpha    103.612811301
_cell_angle_beta    79.2614005862
_cell_angle_gamma    94.5611377874

_symmetry_space_group_name_H-M    'P 1'
loop_
_atom_site_label
_atom_site_type_symbol
_atom_site_fract_x
_atom_site_fract_y
_atom_site_fract_z
_atom_site_occupancy
I1   I   0.001801210255778   0.585773674342725   0.717052717351407   1.0
I2   I   0.518716694672186   0.207268403664031   0.079777727687606   1.0
I3   I   0.978182738652421   0.818792226657365   0.286126869954089   1.0
H4   H   0.321574160733199   0.751048006899779   0.495414609003660   1.0
H5   H   0.565520805084461   0.727009991185341   0.394995804737185   1.0
H6   H   0.414136998795932   0.952840327063832   0.355326701248529   1.0
H7   H   0.548680335960952   0.006580312198636   0.683944311763717   1.0
H8   H   0.647363473021571   0.224030220280412   0.536591710907551   1.0
H9   H   0.387427798311833   0.255154194172881   0.640716295646143   1.0
C10   C   0.513012546194624   0.108366320734952   0.588816686249380   1.0
Sn11   Sn   0.982293146265995   0.201458772873053   0.007230797425045   1.0
N12   N   0.448640092051058   0.868177549927033   0.450325768025756   1.0




# HOIP entry ID:                    0845
# Khazana ID:                       2695
# Organic cation source:            T.D.Huan et al., Phys. Rev. B 93,094105(2016)
# Label:                            Methylammonium Tin Iodide
# Material class:                   Hybrid organic-inorganic perovskite ( MC_ino )
# Geometry class:                   Bulk crystalline materials ( GC_cry )
# Organic cation chemical formula:  CH3NH3
# Number of atom types:             5
# Total number of atoms:            12
# Atom types:                       C H N  Sn I
# Number of each atom:              1 6 1  1 3
# Bandgap, HSE06 (eV):              2.6347
# Bandgap, GGA (eV):                1.9191
# Kpoint for VBM:                   0.5, 0.0556, 0.5
# Kpoint for CBM:                   0.5, 0.5, 0
# Dielectric constant, electronic:  4.8562
# Dielectric constant, ionic:       13.0716
# Dielectric constant, total:       17.9278
# Refractive index:                 2.2037
# Atomization energy (eV/atom):     -3.9099
# Relative energy1 (eV/atom):       0.2785
# Relative energy2 (eV/atom):       0.4387
# Volume of the unit cell (A^3):    251.45
# Density (g/cm^3):                 3.51
# Tool:                             VASP
# Pseudopotential:                  PAW
# Note:                             ENCUT=400eV, k-spacing_relax=0.20/Angstrom, k-spacing_bandgap=0.15/Angstrom
# Created by:                       C.Kim, T.D.Huan, S.Krishnan, R. Ramprasad