data_1
_audit_creation_method   'Generated by vasp2cif'
_cell_length_a    6.93736779531
_cell_length_b    4.71750589412
_cell_length_c    8.51071499365
_cell_angle_alpha    106.352442044
_cell_angle_beta    84.9222725193
_cell_angle_gamma    73.2296805387

_symmetry_space_group_name_H-M    'P 1'
loop_
_atom_site_label
_atom_site_type_symbol
_atom_site_fract_x
_atom_site_fract_y
_atom_site_fract_z
_atom_site_occupancy
I1   I   0.948551787232304   0.778967136790079   0.270934384999165   1.0
I2   I   0.460482220479534   0.902193619780121   0.971715086921506   1.0
I3   I   0.076309061939185   0.427480261002323   0.692344783388720   1.0
H4   H   0.696637445300006   0.314860791388107   0.481588391989533   1.0
H5   H   0.533902567446169   0.624838336412658   0.637101995957934   1.0
H6   H   0.705617128236383   0.668363927568429   0.502076496464497   1.0
H7   H   0.366818433271668   0.429370321228646   0.397660521383678   1.0
H8   H   0.355824546780546   0.826238572506576   0.437145837916390   1.0
H9   H   0.542716718905837   0.523113643418206   0.270228486570886   1.0
C10   C   0.455922320037850   0.583933963310947   0.394777600876203   1.0
Sn11   Sn   0.010304079107328   0.097932899470031   0.972392790215004   1.0
N12   N   0.605293691263064   0.546836527123922   0.513033623316467   1.0




# HOIP entry ID:                    0846
# Khazana ID:                       2696
# Organic cation source:            T.D.Huan et al., Phys. Rev. B 93,094105(2016)
# Label:                            Methylammonium Tin Iodide
# Material class:                   Hybrid organic-inorganic perovskite ( MC_ino )
# Geometry class:                   Bulk crystalline materials ( GC_cry )
# Organic cation chemical formula:  CH3NH3
# Number of atom types:             5
# Total number of atoms:            12
# Atom types:                       C H N  Sn I
# Number of each atom:              1 6 1  1 3
# Bandgap, HSE06 (eV):              3.0888
# Bandgap, GGA (eV):                2.3124
# Kpoint for VBM:                   -0.25, -0.2222, 0.0833
# Kpoint for CBM:                   -0.4167, 0, 0.4167
# Dielectric constant, electronic:  4.5836
# Dielectric constant, ionic:       12.3254
# Dielectric constant, total:       16.909
# Refractive index:                 2.1409
# Atomization energy (eV/atom):     -3.9084
# Relative energy1 (eV/atom):       0.28
# Relative energy2 (eV/atom):       0.4402
# Volume of the unit cell (A^3):    251.49
# Density (g/cm^3):                 3.5094
# Tool:                             VASP
# Pseudopotential:                  PAW
# Note:                             ENCUT=400eV, k-spacing_relax=0.20/Angstrom, k-spacing_bandgap=0.15/Angstrom
# Created by:                       C.Kim, T.D.Huan, S.Krishnan, R. Ramprasad