data_1
_audit_creation_method   'Generated by vasp2cif'
_cell_length_a    8.67799325293
_cell_length_b    4.57174642154
_cell_length_c    6.40442781539
_cell_angle_alpha    86.4752782962
_cell_angle_beta    95.1261152509
_cell_angle_gamma    91.1782283156

_symmetry_space_group_name_H-M    'P 1'
loop_
_atom_site_label
_atom_site_type_symbol
_atom_site_fract_x
_atom_site_fract_y
_atom_site_fract_z
_atom_site_occupancy
I1   I   0.202799431346435   0.728554841088048   0.069565217623783   1.0
I2   I   0.904933132092147   0.155455806700843   0.524492355429182   1.0
I3   I   0.654986075986017   0.712423890254506   0.998812258978603   1.0
H4   H   0.425042879831835   0.020517835344179   0.305495481714651   1.0
H5   H   0.591203943686544   0.104279952122219   0.450857535859086   1.0
H6   H   0.498267976197930   0.359110155580446   0.295634604228944   1.0
H7   H   0.368557458958236   0.046018259037751   0.669869808101978   1.0
H8   H   0.452626318924672   0.405853501923886   0.669379690912542   1.0
H9   H   0.276711180947565   0.336971965338698   0.507807500021279   1.0
C10   C   0.386892074648614   0.247792070644266   0.574975756623246   1.0
Sn11   Sn   0.929563220343034   0.228145638796739   0.047290409691989   1.0
N12   N   0.481256307037015   0.177236083168374   0.396389380814853   1.0




# HOIP entry ID:                    0847
# Khazana ID:                       2697
# Organic cation source:            T.D.Huan et al., Phys. Rev. B 93,094105(2016)
# Label:                            Methylammonium Tin Iodide
# Material class:                   Hybrid organic-inorganic perovskite ( MC_ino )
# Geometry class:                   Bulk crystalline materials ( GC_cry )
# Organic cation chemical formula:  CH3NH3
# Number of atom types:             5
# Total number of atoms:            12
# Atom types:                       C H N  Sn I
# Number of each atom:              1 6 1  1 3
# Bandgap, HSE06 (eV):              2.3765
# Bandgap, GGA (eV):                1.7813
# Kpoint for VBM:                   0.5, 0.1667, 0.5
# Kpoint for CBM:                   0.5, 0.5, 0.5
# Dielectric constant, electronic:  5.1174
# Dielectric constant, ionic:       15.5351
# Dielectric constant, total:       20.6525
# Refractive index:                 2.2622
# Atomization energy (eV/atom):     -3.9071
# Relative energy1 (eV/atom):       0.2812
# Relative energy2 (eV/atom):       0.4415
# Volume of the unit cell (A^3):    252.56
# Density (g/cm^3):                 3.4945
# Tool:                             VASP
# Pseudopotential:                  PAW
# Note:                             ENCUT=400eV, k-spacing_relax=0.20/Angstrom, k-spacing_bandgap=0.15/Angstrom
# Created by:                       C.Kim, T.D.Huan, S.Krishnan, R. Ramprasad