data_1
_audit_creation_method   'Generated by vasp2cif'
_cell_length_a    8.42559334162
_cell_length_b    4.75686001354
_cell_length_c    8.00108097274
_cell_angle_alpha    53.6578557379
_cell_angle_beta    100.202476277
_cell_angle_gamma    106.566442395

_symmetry_space_group_name_H-M    'P 1'
loop_
_atom_site_label
_atom_site_type_symbol
_atom_site_fract_x
_atom_site_fract_y
_atom_site_fract_z
_atom_site_occupancy
I1   I   0.280404603494030   0.963340987817457   0.051362941840036   1.0
I2   I   0.942015170204965   0.770017358142824   0.556968820220972   1.0
I3   I   0.713058902491281   0.669684205244235   0.053834790393451   1.0
H4   H   0.616371974492820   0.512692094440252   0.552177397037414   1.0
H5   H   0.438121178754423   0.624492555449050   0.423623448189230   1.0
H6   H   0.442428615776255   0.358333751506894   0.686948955848019   1.0
H7   H   0.484335878933726   0.171259481296389   0.405357572885593   1.0
H8   H   0.497524455368616   0.889243910785263   0.684924014035091   1.0
H9   H   0.304915272842489   0.005011854643527   0.557981970714214   1.0
C10   C   0.439458916955251   0.092948524769506   0.550101007226195   1.0
Sn11   Sn   0.983567718703363   0.306477461317205   0.049853365798369   1.0
N12   N   0.488097311982794   0.421197814587433   0.553515715811472   1.0




# HOIP entry ID:                    0848
# Khazana ID:                       2698
# Organic cation source:            T.D.Huan et al., Phys. Rev. B 93,094105(2016)
# Label:                            Methylammonium Tin Iodide
# Material class:                   Hybrid organic-inorganic perovskite ( MC_ino )
# Geometry class:                   Bulk crystalline materials ( GC_cry )
# Organic cation chemical formula:  CH3NH3
# Number of atom types:             5
# Total number of atoms:            12
# Atom types:                       C H N  Sn I
# Number of each atom:              1 6 1  1 3
# Bandgap, HSE06 (eV):              2.2507
# Bandgap, GGA (eV):                1.6172
# Kpoint for VBM:                   0.5, 0, 0.5
# Kpoint for CBM:                   0.4211, 0.5, 0
# Dielectric constant, electronic:  5.4787
# Dielectric constant, ionic:       42.293
# Dielectric constant, total:       47.7716
# Refractive index:                 2.3407
# Atomization energy (eV/atom):     -3.9095
# Relative energy1 (eV/atom):       0.2789
# Relative energy2 (eV/atom):       0.4392
# Volume of the unit cell (A^3):    247.57
# Density (g/cm^3):                 3.565
# Tool:                             VASP
# Pseudopotential:                  PAW
# Note:                             ENCUT=400eV, k-spacing_relax=0.20/Angstrom, k-spacing_bandgap=0.15/Angstrom
# Created by:                       C.Kim, T.D.Huan, S.Krishnan, R. Ramprasad