data_1
_audit_creation_method   'Generated by vasp2cif'
_cell_length_a    6.54241282101
_cell_length_b    6.50616500217
_cell_length_c    6.49501304167
_cell_angle_alpha    96.8945379889
_cell_angle_beta    95.2631623631
_cell_angle_gamma    94.985595454

_symmetry_space_group_name_H-M    'P 1'
loop_
_atom_site_label
_atom_site_type_symbol
_atom_site_fract_x
_atom_site_fract_y
_atom_site_fract_z
_atom_site_occupancy
C1   C   0.300056786532025   0.291142009702305   0.336741943787068   1.0
H2   H   0.096086149356729   0.259338531033023   0.557513385667114   1.0
H3   H   0.090480818570150   0.509334162596545   0.318860113936758   1.0
H4   H   0.532427971031936   0.098090057189744   0.312488620852022   1.0
H5   H   0.529322015725349   0.280846230030008   0.139387325291096   1.0
H6   H   0.274756669617105   0.520017990594759   0.144754308379895   1.0
H7   H   0.286041134927281   0.090461797776108   0.558936446301850   1.0
I8   I   0.763271385275182   0.762605677566540   0.343047377984242   1.0
I9   I   0.768095477317559   0.297019196012357   0.805306429047057   1.0
I10   I   0.289197355104555   0.777282112972358   0.826830791721015   1.0
N11   N   0.217979500057631   0.203274001892936   0.490917307290268   1.0
N12   N   0.212845390864317   0.447963327207717   0.258215956838150   1.0
N13   N   0.467341008065794   0.220562759269868   0.259567838741830   1.0
Sn14   Sn   0.820198337554444   0.774252146155717   0.821492154161682   1.0




# HOIP entry ID:                    0849
# Khazana ID:                       2699
# Organic cation source:            B.Saparov et al., Chem. Rev. 116, 4558 (2016)
# Label:                            Guanidinium Tin Iodide
# Material class:                   Hybrid organic-inorganic perovskite ( MC_ino )
# Geometry class:                   Bulk crystalline materials ( GC_cry )
# Organic cation chemical formula:  C(NH2)3
# Number of atom types:             5
# Total number of atoms:            14
# Atom types:                       C H N  Sn I
# Number of each atom:              1 6 3  1 3
# Bandgap, HSE06 (eV):              1.7929
# Bandgap, GGA (eV):                1.2413
# Kpoint for VBM:                   0.5, 0.5, 0.5
# Kpoint for CBM:                   0.5, 0.5, 0.5
# Dielectric constant, electronic:  5.557
# Dielectric constant, ionic:       14.4165
# Dielectric constant, total:       19.9735
# Refractive index:                 2.3573
# Atomization energy (eV/atom):     -4.4697
# Relative energy1 (eV/atom):       0.4663
# Relative energy2 (eV/atom):       0.6037
# Volume of the unit cell (A^3):    271.97
# Density (g/cm^3):                 3.4162
# Tool:                             VASP
# Pseudopotential:                  PAW
# Note:                             ENCUT=400eV, k-spacing_relax=0.20/Angstrom, k-spacing_bandgap=0.15/Angstrom
# Created by:                       C.Kim, T.D.Huan, S.Krishnan, R. Ramprasad