data_1
_audit_creation_method   'Generated by vasp2cif'
_cell_length_a    6.40945164281
_cell_length_b    6.4867798528
_cell_length_c    6.53517440702
_cell_angle_alpha    88.0113980116
_cell_angle_beta    93.6173661738
_cell_angle_gamma    85.152167174

_symmetry_space_group_name_H-M    'P 1'
loop_
_atom_site_label
_atom_site_type_symbol
_atom_site_fract_x
_atom_site_fract_y
_atom_site_fract_z
_atom_site_occupancy
C1   C   0.754591902933889   0.286772867355850   0.634059073586251   1.0
H2   H   0.855281545107971   0.173250179244974   0.364601617420398   1.0
H3   H   0.990213039391584   0.452813129927506   0.533628400840279   1.0
H4   H   0.514586144951650   0.159260386816023   0.772551914049075   1.0
H5   H   0.618205091600565   0.361750195730998   0.900633576236601   1.0
H6   H   0.880659897184792   0.540045560340189   0.754881264936166   1.0
H7   H   0.667119992528093   0.036099591118045   0.476427406311799   1.0
I8   I   0.298504164099043   0.799006403482373   0.623904404819207   1.0
I9   I   0.210911285332323   0.270214605449432   0.147868912381035   1.0
I10   I   0.744536495149774   0.738136471545623   0.117764326354781   1.0
N11   N   0.754006989668952   0.159496058924581   0.476600657020775   1.0
N12   N   0.884234066340561   0.438284045756440   0.640544124992800   1.0
N13   N   0.625314850604632   0.261775903599577   0.784980196963595   1.0
Sn14   Sn   0.259034535106210   0.797934600708459   0.153834124087268   1.0




# HOIP entry ID:                    0850
# Khazana ID:                       2700
# Organic cation source:            B.Saparov et al., Chem. Rev. 116, 4558 (2016)
# Label:                            Guanidinium Tin Iodide
# Material class:                   Hybrid organic-inorganic perovskite ( MC_ino )
# Geometry class:                   Bulk crystalline materials ( GC_cry )
# Organic cation chemical formula:  C(NH2)3
# Number of atom types:             5
# Total number of atoms:            14
# Atom types:                       C H N  Sn I
# Number of each atom:              1 6 3  1 3
# Bandgap, HSE06 (eV):              1.6399
# Bandgap, GGA (eV):                1.0856
# Kpoint for VBM:                   0.5, 0.5, 0.5
# Kpoint for CBM:                   0.5, 0.5, 0.5
# Dielectric constant, electronic:  5.7042
# Dielectric constant, ionic:       18.9263
# Dielectric constant, total:       24.6305
# Refractive index:                 2.3883
# Atomization energy (eV/atom):     -4.469
# Relative energy1 (eV/atom):       0.467
# Relative energy2 (eV/atom):       0.6044
# Volume of the unit cell (A^3):    269.98
# Density (g/cm^3):                 3.4414
# Tool:                             VASP
# Pseudopotential:                  PAW
# Note:                             ENCUT=400eV, k-spacing_relax=0.20/Angstrom, k-spacing_bandgap=0.15/Angstrom
# Created by:                       C.Kim, T.D.Huan, S.Krishnan, R. Ramprasad