data_1
_audit_creation_method   'Generated by vasp2cif'
_cell_length_a    9.87247305966
_cell_length_b    4.47526901432
_cell_length_c    6.69760730232
_cell_angle_alpha    76.0884610594
_cell_angle_beta    96.9148669483
_cell_angle_gamma    116.904809563

_symmetry_space_group_name_H-M    'P 1'
loop_
_atom_site_label
_atom_site_type_symbol
_atom_site_fract_x
_atom_site_fract_y
_atom_site_fract_z
_atom_site_occupancy
C1   C   0.467563760801667   0.208462417134342   0.526734181105809   1.0
H2   H   0.375206017246477   0.350768408345559   0.724979841712852   1.0
H3   H   0.569617391270150   0.555531973524040   0.714435319427508   1.0
H4   H   0.599144396733067   0.126218154187853   0.349739843910292   1.0
H5   H   0.699192307989925   0.432272303022827   0.496987036776986   1.0
H6   H   0.234917110479870   0.956431491364327   0.512849113796037   1.0
H7   H   0.328766031073130   0.842915835545483   0.363099776108342   1.0
I8   I   0.968315510270550   0.985917558797887   0.566881418368730   1.0
I9   I   0.243380183890729   0.550712948567949   0.026754901358167   1.0
I10   I   0.701199295264018   0.012774180599422   0.021152975278099   1.0
N11   N   0.470214918344340   0.411588892473475   0.648620107468801   1.0
N12   N   0.334402696816845   0.971221544592410   0.472786807256760   1.0
N13   N   0.598222538360851   0.244854455865095   0.461161666178462   1.0
Sn14   Sn   0.971597841458603   0.779079835979431   0.031827011253164   1.0




# HOIP entry ID:                    0851
# Khazana ID:                       2701
# Organic cation source:            B.Saparov et al., Chem. Rev. 116, 4558 (2016)
# Label:                            Guanidinium Tin Iodide
# Material class:                   Hybrid organic-inorganic perovskite ( MC_ino )
# Geometry class:                   Bulk crystalline materials ( GC_cry )
# Organic cation chemical formula:  C(NH2)3
# Number of atom types:             5
# Total number of atoms:            14
# Atom types:                       C H N  Sn I
# Number of each atom:              1 6 3  1 3
# Bandgap, HSE06 (eV):              2.6343
# Bandgap, GGA (eV):                1.9208
# Kpoint for VBM:                   -0.375, -0.15, 0.25
# Kpoint for CBM:                   0, 0, 0.5
# Dielectric constant, electronic:  4.7765
# Dielectric constant, ionic:       9.6023
# Dielectric constant, total:       14.3788
# Refractive index:                 2.1855
# Atomization energy (eV/atom):     -4.4754
# Relative energy1 (eV/atom):       0.4606
# Relative energy2 (eV/atom):       0.598
# Volume of the unit cell (A^3):    256.12
# Density (g/cm^3):                 3.6276
# Tool:                             VASP
# Pseudopotential:                  PAW
# Note:                             ENCUT=400eV, k-spacing_relax=0.20/Angstrom, k-spacing_bandgap=0.15/Angstrom
# Created by:                       C.Kim, T.D.Huan, S.Krishnan, R. Ramprasad