data_1
_audit_creation_method   'Generated by vasp2cif'
_cell_length_a    6.22321337392
_cell_length_b    6.43916593448
_cell_length_c    6.37184985174
_cell_angle_alpha    100.973094198
_cell_angle_beta    85.4778038526
_cell_angle_gamma    89.0945929843

_symmetry_space_group_name_H-M    'P 1'
loop_
_atom_site_label
_atom_site_type_symbol
_atom_site_fract_x
_atom_site_fract_y
_atom_site_fract_z
_atom_site_occupancy
I1   I   0.067655420765191   0.029673816339290   0.570353874960012   1.0
I2   I   0.509360106272339   0.858202863919694   0.994687116283968   1.0
I3   I   0.998515733304222   0.461659503040824   0.160165734210032   1.0
H4   H   0.336761122563342   0.508709230183580   0.383449137217084   1.0
H5   H   0.608518456348818   0.546242343954496   0.363253044949028   1.0
H6   H   0.458916857836739   0.650478979231951   0.597838864067974   1.0
H7   H   0.388620703145095   0.265499304689371   0.569250005061039   1.0
Sn8   Sn   0.999867037251668   0.976528328279683   0.044418754882346   1.0
N9   N   0.475906718147091   0.524884898030329   0.466659778184121   1.0
O10   O   0.529617844365450   0.332640732330672   0.541913690184323   1.0




# HOIP entry ID:                    0852
# Khazana ID:                       2702
# Organic cation source:            G.Kieslich et al., Chem. Sci. 6, 3430 (2015)
# Label:                            Hydroxylammonium Tin Iodide
# Material class:                   Hybrid organic-inorganic perovskite ( MC_ino )
# Geometry class:                   Bulk crystalline materials ( GC_cry )
# Organic cation chemical formula:  OHNH3
# Number of atom types:             5
# Total number of atoms:            10
# Atom types:                        H N O Sn I
# Number of each atom:               4 1  1 3
# Bandgap, HSE06 (eV):              1.9713
# Bandgap, GGA (eV):                1.4861
# Kpoint for VBM:                   0.5, 0.5, 0.5
# Kpoint for CBM:                   0.4167, -0.4167, 0.4167
# Dielectric constant, electronic:  5.6182
# Dielectric constant, ionic:       17.168
# Dielectric constant, total:       22.7862
# Refractive index:                 2.3703
# Atomization energy (eV/atom):     -3.5658
# Relative energy1 (eV/atom):       0.5228
# Relative energy2 (eV/atom):       0.7151
# Volume of the unit cell (A^3):    249.76
# Density (g/cm^3):                 3.5468
# Tool:                             VASP
# Pseudopotential:                  PAW
# Note:                             ENCUT=400eV, k-spacing_relax=0.20/Angstrom, k-spacing_bandgap=0.15/Angstrom
# Created by:                       C.Kim, T.D.Huan, S.Krishnan, R. Ramprasad