data_1
_audit_creation_method   'Generated by vasp2cif'
_cell_length_a    6.39890888501
_cell_length_b    4.66960727486
_cell_length_c    8.07722751298
_cell_angle_alpha    106.351421397
_cell_angle_beta    87.2093014499
_cell_angle_gamma    91.6151961628

_symmetry_space_group_name_H-M    'P 1'
loop_
_atom_site_label
_atom_site_type_symbol
_atom_site_fract_x
_atom_site_fract_y
_atom_site_fract_z
_atom_site_occupancy
I1   I   0.983269687760988   0.168026658945244   0.718233137368053   1.0
I2   I   0.476790988005028   0.833883871255573   0.043377019539442   1.0
I3   I   0.952332729304281   0.452287546584444   0.304841717347728   1.0
H4   H   0.498174951381103   0.912650668669251   0.379792296226469   1.0
H5   H   0.626783086769400   0.948314028293019   0.566475390987833   1.0
H6   H   0.370864490493936   0.053027134687774   0.579100668098356   1.0
H7   H   0.287454625592957   0.564123031606066   0.448453040204903   1.0
Sn8   Sn   0.981750096235437   0.809894993771117   0.012393763088063   1.0
N9   N   0.483083905388796   0.903885520496701   0.508368748957658   1.0
O10   O   0.421015439068036   0.605116545690798   0.512744218181446   1.0




# HOIP entry ID:                    0853
# Khazana ID:                       2703
# Organic cation source:            G.Kieslich et al., Chem. Sci. 6, 3430 (2015)
# Label:                            Hydroxylammonium Tin Iodide
# Material class:                   Hybrid organic-inorganic perovskite ( MC_ino )
# Geometry class:                   Bulk crystalline materials ( GC_cry )
# Organic cation chemical formula:  OHNH3
# Number of atom types:             5
# Total number of atoms:            10
# Atom types:                        H N O Sn I
# Number of each atom:               4 1  1 3
# Bandgap, HSE06 (eV):              2.0766
# Bandgap, GGA (eV):                1.4921
# Kpoint for VBM:                   0.5, 0, 0.5
# Kpoint for CBM:                   0.5, 0.5, 0.5
# Dielectric constant, electronic:  5.8784
# Dielectric constant, ionic:       54.1035
# Dielectric constant, total:       59.9819
# Refractive index:                 2.4245
# Atomization energy (eV/atom):     -3.5881
# Relative energy1 (eV/atom):       0.5005
# Relative energy2 (eV/atom):       0.6929
# Volume of the unit cell (A^3):    231.29
# Density (g/cm^3):                 3.8301
# Tool:                             VASP
# Pseudopotential:                  PAW
# Note:                             ENCUT=400eV, k-spacing_relax=0.20/Angstrom, k-spacing_bandgap=0.15/Angstrom
# Created by:                       C.Kim, T.D.Huan, S.Krishnan, R. Ramprasad