data_1
_audit_creation_method   'Generated by vasp2cif'
_cell_length_a    8.08073385544
_cell_length_b    4.69545656562
_cell_length_c    6.39158040845
_cell_angle_alpha    89.8855262212
_cell_angle_beta    92.488755043
_cell_angle_gamma    72.6829939166

_symmetry_space_group_name_H-M    'P 1'
loop_
_atom_site_label
_atom_site_type_symbol
_atom_site_fract_x
_atom_site_fract_y
_atom_site_fract_z
_atom_site_occupancy
I1   I   0.767107075228701   0.338458922906582   0.133301819000280   1.0
I2   I   0.103168694330805   0.676021726835387   0.626711166395232   1.0
I3   I   0.353230846179386   0.039590590131574   0.150551051997482   1.0
H4   H   0.438459764364481   0.371452086386974   0.612639311720429   1.0
H5   H   0.626848854197583   0.217544565063939   0.487536696804632   1.0
H6   H   0.637001174758872   0.313047384788099   0.745286674114652   1.0
H7   H   0.503069708325377   0.961042193397986   0.819569761171152   1.0
Sn8   Sn   0.062386544773794   0.690068728388347   0.129774944351823   1.0
N9   N   0.567189380506264   0.233404051174240   0.629895961811712   1.0
O10   O   0.570177957334735   0.933309750926874   0.688122612632611   1.0




# HOIP entry ID:                    0854
# Khazana ID:                       2704
# Organic cation source:            G.Kieslich et al., Chem. Sci. 6, 3430 (2015)
# Label:                            Hydroxylammonium Tin Iodide
# Material class:                   Hybrid organic-inorganic perovskite ( MC_ino )
# Geometry class:                   Bulk crystalline materials ( GC_cry )
# Organic cation chemical formula:  OHNH3
# Number of atom types:             5
# Total number of atoms:            10
# Atom types:                        H N O Sn I
# Number of each atom:               4 1  1 3
# Bandgap, HSE06 (eV):              2.1319
# Bandgap, GGA (eV):                1.5522
# Kpoint for VBM:                   0.1, 0.2778, 0.5
# Kpoint for CBM:                   -0.3, 0.3889, 0.5
# Dielectric constant, electronic:  5.8571
# Dielectric constant, ionic:       33.2911
# Dielectric constant, total:       39.1482
# Refractive index:                 2.4201
# Atomization energy (eV/atom):     -3.5874
# Relative energy1 (eV/atom):       0.5012
# Relative energy2 (eV/atom):       0.6935
# Volume of the unit cell (A^3):    231.27
# Density (g/cm^3):                 3.8304
# Tool:                             VASP
# Pseudopotential:                  PAW
# Note:                             ENCUT=400eV, k-spacing_relax=0.20/Angstrom, k-spacing_bandgap=0.15/Angstrom
# Created by:                       C.Kim, T.D.Huan, S.Krishnan, R. Ramprasad