data_1
_audit_creation_method   'Generated by vasp2cif'
_cell_length_a    6.39065011005
_cell_length_b    4.59021106895
_cell_length_c    8.15558546746
_cell_angle_alpha    105.717286903
_cell_angle_beta    86.4490922258
_cell_angle_gamma    92.901926695

_symmetry_space_group_name_H-M    'P 1'
loop_
_atom_site_label
_atom_site_type_symbol
_atom_site_fract_x
_atom_site_fract_y
_atom_site_fract_z
_atom_site_occupancy
I1   I   0.871275389185207   0.908230071514417   0.757361840345190   1.0
I2   I   0.352589442466019   0.598981666311559   0.027460734711184   1.0
I3   I   0.863295919111550   0.189621221042863   0.343776279186997   1.0
H4   H   0.457948197226052   0.105372208761779   0.488907394889679   1.0
H5   H   0.488098771311513   0.981971588603379   0.662025869149900   1.0
H6   H   0.237736879310425   0.039409134242575   0.613229407902871   1.0
H7   H   0.348125825885866   0.655141905859807   0.348823042640632   1.0
Sn8   Sn   0.860992319321461   0.542381356834134   0.054933951902619   1.0
N9   N   0.388097292434693   0.973436001980787   0.564244816551700   1.0
O10   O   0.377109963747245   0.656784844848680   0.468636662719256   1.0




# HOIP entry ID:                    0855
# Khazana ID:                       2705
# Organic cation source:            G.Kieslich et al., Chem. Sci. 6, 3430 (2015)
# Label:                            Hydroxylammonium Tin Iodide
# Material class:                   Hybrid organic-inorganic perovskite ( MC_ino )
# Geometry class:                   Bulk crystalline materials ( GC_cry )
# Organic cation chemical formula:  OHNH3
# Number of atom types:             5
# Total number of atoms:            10
# Atom types:                        H N O Sn I
# Number of each atom:               4 1  1 3
# Bandgap, HSE06 (eV):              2.114
# Bandgap, GGA (eV):                1.5138
# Kpoint for VBM:                   0.5, 0.0556, 0.5
# Kpoint for CBM:                   0.5, 0.5, 0
# Dielectric constant, electronic:  5.785
# Dielectric constant, ionic:       19.0151
# Dielectric constant, total:       24.8001
# Refractive index:                 2.4052
# Atomization energy (eV/atom):     -3.5829
# Relative energy1 (eV/atom):       0.5058
# Relative energy2 (eV/atom):       0.6981
# Volume of the unit cell (A^3):    229.71
# Density (g/cm^3):                 3.8564
# Tool:                             VASP
# Pseudopotential:                  PAW
# Note:                             ENCUT=400eV, k-spacing_relax=0.20/Angstrom, k-spacing_bandgap=0.15/Angstrom
# Created by:                       C.Kim, T.D.Huan, S.Krishnan, R. Ramprasad