data_1
_audit_creation_method   'Generated by vasp2cif'
_cell_length_a    8.25832682179
_cell_length_b    4.60928108996
_cell_length_c    6.59799676643
_cell_angle_alpha    88.0584080498
_cell_angle_beta    74.4371935589
_cell_angle_gamma    74.9612287128

_symmetry_space_group_name_H-M    'P 1'
loop_
_atom_site_label
_atom_site_type_symbol
_atom_site_fract_x
_atom_site_fract_y
_atom_site_fract_z
_atom_site_occupancy
I1   I   0.775067700029027   0.383218806078624   0.217282897476132   1.0
I2   I   0.167907640311057   0.704196163754716   0.755778715833486   1.0
I3   I   0.358565537100880   0.109691846216428   0.210338895226030   1.0
H4   H   0.444577663359397   0.950609896903792   0.633373209245534   1.0
H5   H   0.602586738473200   0.139064835398365   0.534496488015947   1.0
H6   H   0.471299233338186   0.210554285732762   0.786348827823872   1.0
H7   H   0.621871619259572   0.821364246666207   0.890001271711419   1.0
Sn8   Sn   0.061942502292951   0.749636057060705   0.232395169124764   1.0
N9   N   0.536239269453752   0.046205749660786   0.667321840386499   1.0
O10   O   0.666922096381988   0.814688112527669   0.733652685156294   1.0




# HOIP entry ID:                    0856
# Khazana ID:                       2706
# Organic cation source:            G.Kieslich et al., Chem. Sci. 6, 3430 (2015)
# Label:                            Hydroxylammonium Tin Iodide
# Material class:                   Hybrid organic-inorganic perovskite ( MC_ino )
# Geometry class:                   Bulk crystalline materials ( GC_cry )
# Organic cation chemical formula:  OHNH3
# Number of atom types:             5
# Total number of atoms:            10
# Atom types:                        H N O Sn I
# Number of each atom:               4 1  1 3
# Bandgap, HSE06 (eV):              2.8704
# Bandgap, GGA (eV):                2.1394
# Kpoint for VBM:                   0.5, 0.0556, 0.5
# Kpoint for CBM:                   0.1, 0.5, 0.5
# Dielectric constant, electronic:  5.1775
# Dielectric constant, ionic:       12.4457
# Dielectric constant, total:       17.6232
# Refractive index:                 2.2754
# Atomization energy (eV/atom):     -3.58
# Relative energy1 (eV/atom):       0.5086
# Relative energy2 (eV/atom):       0.7009
# Volume of the unit cell (A^3):    233.49
# Density (g/cm^3):                 3.794
# Tool:                             VASP
# Pseudopotential:                  PAW
# Note:                             ENCUT=400eV, k-spacing_relax=0.20/Angstrom, k-spacing_bandgap=0.15/Angstrom
# Created by:                       C.Kim, T.D.Huan, S.Krishnan, R. Ramprasad