data_1
_audit_creation_method   'Generated by vasp2cif'
_cell_length_a    6.73468200865
_cell_length_b    4.63123415568
_cell_length_c    8.05364811055
_cell_angle_alpha    105.180930956
_cell_angle_beta    103.354938312
_cell_angle_gamma    77.8762075611

_symmetry_space_group_name_H-M    'P 1'
loop_
_atom_site_label
_atom_site_type_symbol
_atom_site_fract_x
_atom_site_fract_y
_atom_site_fract_z
_atom_site_occupancy
I1   I   0.831926494466884   0.171312119968484   0.730923757582303   1.0
I2   I   0.359260255268552   0.630252189733014   0.997163215159702   1.0
I3   I   0.979705868736417   0.404633823061673   0.337597122472850   1.0
H4   H   0.216432263999962   0.065245066891350   0.554028370400459   1.0
H5   H   0.460946856463721   0.074932054062586   0.673837818406000   1.0
H6   H   0.309925188813345   0.856248157820829   0.712623720150539   1.0
H7   H   0.323904958539479   0.586393490296672   0.422212733233124   1.0
Sn8   Sn   0.906753865029010   0.793964607966103   0.027351198824299   1.0
N9   N   0.345811911651019   0.940436899957625   0.616634217718641   1.0
O10   O   0.440242337031677   0.697721590241699   0.489997846052070   1.0




# HOIP entry ID:                    0857
# Khazana ID:                       2707
# Organic cation source:            G.Kieslich et al., Chem. Sci. 6, 3430 (2015)
# Label:                            Hydroxylammonium Tin Iodide
# Material class:                   Hybrid organic-inorganic perovskite ( MC_ino )
# Geometry class:                   Bulk crystalline materials ( GC_cry )
# Organic cation chemical formula:  OHNH3
# Number of atom types:             5
# Total number of atoms:            10
# Atom types:                        H N O Sn I
# Number of each atom:               4 1  1 3
# Bandgap, HSE06 (eV):              2.9048
# Bandgap, GGA (eV):                2.1743
# Kpoint for VBM:                   0.5, 0.0556, 0.5
# Kpoint for CBM:                   0.5, 0.0556, 0.5
# Dielectric constant, electronic:  5.0543
# Dielectric constant, ionic:       11.1077
# Dielectric constant, total:       16.162
# Refractive index:                 2.2482
# Atomization energy (eV/atom):     -3.5826
# Relative energy1 (eV/atom):       0.506
# Relative energy2 (eV/atom):       0.6983
# Volume of the unit cell (A^3):    232.86
# Density (g/cm^3):                 3.8042
# Tool:                             VASP
# Pseudopotential:                  PAW
# Note:                             ENCUT=400eV, k-spacing_relax=0.20/Angstrom, k-spacing_bandgap=0.15/Angstrom
# Created by:                       C.Kim, T.D.Huan, S.Krishnan, R. Ramprasad