data_1
_audit_creation_method   'Generated by vasp2cif'
_cell_length_a    8.26754522282
_cell_length_b    4.60040965956
_cell_length_c    6.37009491477
_cell_angle_alpha    89.3112132546
_cell_angle_beta    92.260058217
_cell_angle_gamma    73.4427873138

_symmetry_space_group_name_H-M    'P 1'
loop_
_atom_site_label
_atom_site_type_symbol
_atom_site_fract_x
_atom_site_fract_y
_atom_site_fract_z
_atom_site_occupancy
I1   I   0.283323047798724   0.010452837796883   0.971914524738281   1.0
I2   I   0.931643250733110   0.724521665198161   0.488268206995677   1.0
I3   I   0.698323895024487   0.307270635904516   0.973015992056709   1.0
H4   H   0.556360119412389   0.513625327760145   0.301715843679141   1.0
H5   H   0.625163676861185   0.568157202990193   0.548564048051297   1.0
H6   H   0.463102008163446   0.336321245841461   0.679131567741955   1.0
H7   H   0.434598305996630   0.793705142636263   0.449608535550617   1.0
Sn8   Sn   0.998448418289286   0.651623600566282   0.971867568567355   1.0
N9   N   0.517895710342252   0.577752212432252   0.453387094742652   1.0
O10   O   0.432471567378407   0.361330128873881   0.525406617876314   1.0




# HOIP entry ID:                    0858
# Khazana ID:                       2708
# Organic cation source:            G.Kieslich et al., Chem. Sci. 6, 3430 (2015)
# Label:                            Hydroxylammonium Tin Iodide
# Material class:                   Hybrid organic-inorganic perovskite ( MC_ino )
# Geometry class:                   Bulk crystalline materials ( GC_cry )
# Organic cation chemical formula:  OHNH3
# Number of atom types:             5
# Total number of atoms:            10
# Atom types:                        H N O Sn I
# Number of each atom:               4 1  1 3
# Bandgap, HSE06 (eV):              2.3968
# Bandgap, GGA (eV):                1.7867
# Kpoint for VBM:                   0.5, 0.0556, 0.5
# Kpoint for CBM:                   0.5, 0.5, 0.5
# Dielectric constant, electronic:  5.684
# Dielectric constant, ionic:       34.7027
# Dielectric constant, total:       40.3867
# Refractive index:                 2.3841
# Atomization energy (eV/atom):     -3.5791
# Relative energy1 (eV/atom):       0.5095
# Relative energy2 (eV/atom):       0.7018
# Volume of the unit cell (A^3):    231.99
# Density (g/cm^3):                 3.8185
# Tool:                             VASP
# Pseudopotential:                  PAW
# Note:                             ENCUT=400eV, k-spacing_relax=0.20/Angstrom, k-spacing_bandgap=0.15/Angstrom
# Created by:                       C.Kim, T.D.Huan, S.Krishnan, R. Ramprasad