data_1
_audit_creation_method   'Generated by vasp2cif'
_cell_length_a    6.45771509712
_cell_length_b    6.46912523381
_cell_length_c    6.40940611205
_cell_angle_alpha    82.9607021504
_cell_angle_beta    85.1610905317
_cell_angle_gamma    85.610098606

_symmetry_space_group_name_H-M    'P 1'
loop_
_atom_site_label
_atom_site_type_symbol
_atom_site_fract_x
_atom_site_fract_y
_atom_site_fract_z
_atom_site_occupancy
Sn1   Sn   0.603339062476358   0.334529875234878   0.477022146964472   1.0
I2   I   0.666072120980083   0.862461392235780   0.482212183857605   1.0
I3   I   0.124157631025007   0.340179019702980   0.503779037101431   1.0
I4   I   0.607811901016063   0.413405089634814   0.996409908515254   1.0
N5   N   0.094828542681199   0.755283722396236   0.868735931593839   1.0
N6   N   0.226320164058670   0.931106238019709   0.120530230918426   1.0
H7   H   0.213212015046317   0.641437467735877   0.871684449164164   1.0
H8   H   0.354668217983892   0.830803740506013   0.138931916313716   1.0
H9   H   0.982115360127573   0.749818858513237   0.767820802321843   1.0
H10   H   0.204929109252099   0.048681630827836   0.214317096061166   1.0
H11   H   0.953191519611515   0.021750086906437   0.979411148065147   1.0
C12   C   0.085514355741189   0.907532878286197   0.989045149123022   1.0




# HOIP entry ID:                    0859
# Khazana ID:                       2709
# Organic cation source:            T.D.Huan et al., Phys. Rev. B 93,094105(2016)
# Label:                            Formamidinium Tin Iodide
# Material class:                   Hybrid organic-inorganic perovskite ( MC_ino )
# Geometry class:                   Bulk crystalline materials ( GC_cry )
# Organic cation chemical formula:  HC(NH2)2
# Number of atom types:             5
# Total number of atoms:            12
# Atom types:                       C H N  Sn I
# Number of each atom:              1 5 2  1 3
# Bandgap, HSE06 (eV):              1.6725
# Bandgap, GGA (eV):                1.1645
# Kpoint for VBM:                   0.5, 0.5, 0.5
# Kpoint for CBM:                   0.5, 0.5, 0.5
# Dielectric constant, electronic:  5.6615
# Dielectric constant, ionic:       11.394
# Dielectric constant, total:       17.0555
# Refractive index:                 2.3794
# Atomization energy (eV/atom):     -4.2587
# Relative energy1 (eV/atom):       0.0222
# Relative energy2 (eV/atom):       0.1824
# Volume of the unit cell (A^3):    264.2
# Density (g/cm^3):                 3.4223
# Tool:                             VASP
# Pseudopotential:                  PAW
# Note:                             ENCUT=400eV, k-spacing_relax=0.20/Angstrom, k-spacing_bandgap=0.15/Angstrom
# Created by:                       C.Kim, T.D.Huan, S.Krishnan, R. Ramprasad