data_1
_audit_creation_method   'Generated by vasp2cif'
_cell_length_a    6.4374987837
_cell_length_b    6.41926107064
_cell_length_c    6.46946389967
_cell_angle_alpha    87.4335950411
_cell_angle_beta    97.6518177327
_cell_angle_gamma    93.0813340499

_symmetry_space_group_name_H-M    'P 1'
loop_
_atom_site_label
_atom_site_type_symbol
_atom_site_fract_x
_atom_site_fract_y
_atom_site_fract_z
_atom_site_occupancy
Sn1   Sn   0.476260881616929   0.390427535141437   0.658557550644318   1.0
I2   I   0.507790739918146   0.874843028989423   0.644345714523654   1.0
I3   I   0.492220344785397   0.341927595006104   0.133033886765277   1.0
I4   I   0.000099402866915   0.389325497244671   0.589121141199286   1.0
N5   N   0.140756602841558   0.800466006596843   0.055132639149510   1.0
N6   N   0.870797351854332   0.888365770487026   0.237897517724186   1.0
H7   H   0.173645639419748   0.666557220348418   0.141010600462290   1.0
H8   H   0.884872746751835   0.761450976471675   0.338893615912180   1.0
H9   H   0.231384982025439   0.839047090754136   0.939846199921575   1.0
H10   H   0.759211158544925   0.990752790347416   0.254380887836402   1.0
H11   H   0.969751803011118   0.063313967410003   0.990599963442192   1.0
C12   C   0.992576310034258   0.923482476454247   0.090380265419566   1.0




# HOIP entry ID:                    0860
# Khazana ID:                       2710
# Organic cation source:            T.D.Huan et al., Phys. Rev. B 93,094105(2016)
# Label:                            Formamidinium Tin Iodide
# Material class:                   Hybrid organic-inorganic perovskite ( MC_ino )
# Geometry class:                   Bulk crystalline materials ( GC_cry )
# Organic cation chemical formula:  HC(NH2)2
# Number of atom types:             5
# Total number of atoms:            12
# Atom types:                       C H N  Sn I
# Number of each atom:              1 5 2  1 3
# Bandgap, HSE06 (eV):              1.5618
# Bandgap, GGA (eV):                1.0637
# Kpoint for VBM:                   0.5, 0.5, 0.5
# Kpoint for CBM:                   0.4474, 0.5, 0.4474
# Dielectric constant, electronic:  5.7477
# Dielectric constant, ionic:       13.7979
# Dielectric constant, total:       19.5456
# Refractive index:                 2.3974
# Atomization energy (eV/atom):     -4.2583
# Relative energy1 (eV/atom):       0.0226
# Relative energy2 (eV/atom):       0.1828
# Volume of the unit cell (A^3):    264.39
# Density (g/cm^3):                 3.4198
# Tool:                             VASP
# Pseudopotential:                  PAW
# Note:                             ENCUT=400eV, k-spacing_relax=0.20/Angstrom, k-spacing_bandgap=0.15/Angstrom
# Created by:                       C.Kim, T.D.Huan, S.Krishnan, R. Ramprasad