data_1
_audit_creation_method   'Generated by vasp2cif'
_cell_length_a    6.39749744124
_cell_length_b    6.59463218288
_cell_length_c    6.51426092871
_cell_angle_alpha    101.033266867
_cell_angle_beta    96.7572695304
_cell_angle_gamma    76.5166245628

_symmetry_space_group_name_H-M    'P 1'
loop_
_atom_site_label
_atom_site_type_symbol
_atom_site_fract_x
_atom_site_fract_y
_atom_site_fract_z
_atom_site_occupancy
Sn1   Sn   0.376342938652087   0.515208105716752   0.465603200025818   1.0
I2   I   0.541615641735547   0.937629537696132   0.267454410267007   1.0
I3   I   0.496232672280904   0.348264117989089   0.867835339969986   1.0
I4   I   0.963831321937654   0.358237558095745   0.408719187627575   1.0
N5   N   0.908326369363863   0.701707801026657   0.962303869945472   1.0
N6   N   0.187244444422909   0.847637661046711   0.680196142842924   1.0
H7   H   0.096325977966416   0.797698974442532   0.772914853647833   1.0
H8   H   0.087147689767328   0.953622468945817   0.596202996415421   1.0
H9   H   0.853557994924408   0.567233548879848   0.963681044028995   1.0
H10   H   0.290693233876233   0.928414684032660   0.776096708597507   1.0
H11   H   0.865483447952094   0.023541741419848   0.072072700933262   1.0
C12   C   0.819538267120514   0.873333800708160   0.064929545698227   1.0




# HOIP entry ID:                    0861
# Khazana ID:                       2711
# Organic cation source:            T.D.Huan et al., Phys. Rev. B 93,094105(2016)
# Label:                            Formamidinium Tin Iodide
# Material class:                   Hybrid organic-inorganic perovskite ( MC_ino )
# Geometry class:                   Bulk crystalline materials ( GC_cry )
# Organic cation chemical formula:  HC(NH2)2
# Number of atom types:             5
# Total number of atoms:            12
# Atom types:                       C H N  Sn I
# Number of each atom:              1 5 2  1 3
# Bandgap, HSE06 (eV):              3.179
# Bandgap, GGA (eV):                2.3846
# Kpoint for VBM:                   -0.4167, -0.0833, 0.4167
# Kpoint for CBM:                   0.5, 0.5, 0.5
# Dielectric constant, electronic:  4.4071
# Dielectric constant, ionic:       3.3906
# Dielectric constant, total:       7.7977
# Refractive index:                 2.0993
# Atomization energy (eV/atom):     -4.1271
# Relative energy1 (eV/atom):       0.1538
# Relative energy2 (eV/atom):       0.3141
# Volume of the unit cell (A^3):    261.55
# Density (g/cm^3):                 3.4569
# Tool:                             VASP
# Pseudopotential:                  PAW
# Note:                             ENCUT=400eV, k-spacing_relax=0.20/Angstrom, k-spacing_bandgap=0.15/Angstrom
# Created by:                       C.Kim, T.D.Huan, S.Krishnan, R. Ramprasad