data_1
_audit_creation_method   'Generated by vasp2cif'
_cell_length_a    6.83679233
_cell_length_b    6.77913928216
_cell_length_c    6.69147456849
_cell_angle_alpha    89.9011457304
_cell_angle_beta    90.9773706346
_cell_angle_gamma    89.7230773549

_symmetry_space_group_name_H-M    'P 1'
loop_
_atom_site_label
_atom_site_type_symbol
_atom_site_fract_x
_atom_site_fract_y
_atom_site_fract_z
_atom_site_occupancy
C1   C   0.318021747412452   0.360990508760643   0.481072360824477   1.0
C2   C   0.589218559194350   0.523293262791242   0.300469132365322   1.0
C3   C   0.586730895992716   0.525182973695955   0.670647245009299   1.0
C4   C   0.344640745334772   0.725317373280241   0.479256237012613   1.0
H5   H   0.448155218572694   0.847182047215910   0.481071915492905   1.0
H6   H   0.254441131199073   0.728611555199102   0.343815066186160   1.0
H7   H   0.228592356628241   0.370124747397121   0.345192322994734   1.0
H8   H   0.496072299433557   0.532101954462149   0.166859412009650   1.0
H9   H   0.491900787133758   0.535837218552039   0.799544212004250   1.0
H10   H   0.687234746330070   0.648980868660630   0.666488543132104   1.0
H11   H   0.689791365005739   0.647259267179606   0.307222256950340   1.0
H12   H   0.254012476859472   0.728809372564143   0.611170932625207   1.0
H13   H   0.666629153867511   0.385933784455176   0.671937435860812   1.0
H14   H   0.402495540526829   0.224277753524724   0.484954081941886   1.0
H15   H   0.669451732685474   0.384111493306840   0.305000642788535   1.0
H16   H   0.227268178382616   0.373169047451327   0.612586843905163   1.0
I17   I   0.427135221618975   0.041901516261454   0.981744599543362   1.0
I18   I   0.023898581917230   0.556799913371670   0.982555404203360   1.0
I19   I   0.894247198381429   0.028649221114954   0.508572453243666   1.0
N20   N   0.459602387229012   0.533136417581382   0.482483458250371   1.0
Sn21   Sn   0.985489676294030   0.007079703173744   0.968005443654668   1.0




# HOIP entry ID:                    0862
# Khazana ID:                       2712
# Organic cation source:            B.Saparov et al., Chem. Rev. 116, 4558 (2016)
# Label:                            Tetramethylammonium Tin Iodide
# Material class:                   Hybrid organic-inorganic perovskite ( MC_ino )
# Geometry class:                   Bulk crystalline materials ( GC_cry )
# Organic cation chemical formula:  (CH3)4N
# Number of atom types:             5
# Total number of atoms:            21
# Atom types:                       C H N  Sn I
# Number of each atom:              4 12 1  1 3
# Bandgap, HSE06 (eV):              2.1542
# Bandgap, GGA (eV):                1.546
# Kpoint for VBM:                   0.5, 0.5, 0.5
# Kpoint for CBM:                   0.5, 0.5, 0.5
# Dielectric constant, electronic:  4.5935
# Dielectric constant, ionic:       4.9882
# Dielectric constant, total:       9.5817
# Refractive index:                 2.1433
# Atomization energy (eV/atom):     -4.3984
# Relative energy1 (eV/atom):       0.028
# Relative energy2 (eV/atom):       0.1034
# Volume of the unit cell (A^3):    310.08
# Density (g/cm^3):                 3.0717
# Tool:                             VASP
# Pseudopotential:                  PAW
# Note:                             ENCUT=400eV, k-spacing_relax=0.20/Angstrom, k-spacing_bandgap=0.15/Angstrom
# Created by:                       C.Kim, T.D.Huan, S.Krishnan, R. Ramprasad