data_1
_audit_creation_method   'Generated by vasp2cif'
_cell_length_a    6.44609249688
_cell_length_b    6.25431566996
_cell_length_c    6.42644021097
_cell_angle_alpha    90.7179862817
_cell_angle_beta    85.7234218761
_cell_angle_gamma    89.7482638914

_symmetry_space_group_name_H-M    'P 1'
loop_
_atom_site_label
_atom_site_type_symbol
_atom_site_fract_x
_atom_site_fract_y
_atom_site_fract_z
_atom_site_occupancy
I1   I   0.930989239920585   0.962016118301833   0.540866567373811   1.0
I2   I   0.476878832966825   0.986922760691904   0.035976086752612   1.0
I3   I   0.015725221978286   0.484340749856436   0.991655289731632   1.0
H4   H   0.294707990996201   0.564551289822717   0.547058796168741   1.0
H5   H   0.511122718219397   0.675719535021273   0.447527743456796   1.0
H6   H   0.490766901531814   0.356422419768151   0.766132606708737   1.0
H7   H   0.705755634101372   0.477901966599113   0.668877185749501   1.0
H8   H   0.523851064334998   0.620940620128373   0.811791736538403   1.0
Sn9   Sn   0.988484967704728   0.989791370965470   0.073364810890404   1.0
N10   N   0.449043651862262   0.535035063309302   0.504240372827162   1.0
N11   N   0.547403776383476   0.497388105535400   0.701118803802395   1.0




# HOIP entry ID:                    0864
# Khazana ID:                       2714
# Organic cation source:            B.Saparov et al., Chem. Rev. 116, 4558 (2016)
# Label:                            Hydrazinium Tin Iodide
# Material class:                   Hybrid organic-inorganic perovskite ( MC_ino )
# Geometry class:                   Bulk crystalline materials ( GC_cry )
# Organic cation chemical formula:  NH2NH3
# Number of atom types:             4
# Total number of atoms:            11
# Atom types:                        H N  Sn I
# Number of each atom:               5 2  1 3
# Bandgap, HSE06 (eV):              1.5249
# Bandgap, GGA (eV):                1.0554
# Kpoint for VBM:                   0.5, 0.5, 0.5
# Kpoint for CBM:                   0.5, 0.5, 0.4474
# Dielectric constant, electronic:  5.8895
# Dielectric constant, ionic:       17.1622
# Dielectric constant, total:       23.0518
# Refractive index:                 2.4268
# Atomization energy (eV/atom):     -3.7654
# Relative energy1 (eV/atom):       0.5581
# Relative energy2 (eV/atom):       0.7329
# Volume of the unit cell (A^3):    258.34
# Density (g/cm^3):                 3.4227
# Tool:                             VASP
# Pseudopotential:                  PAW
# Note:                             ENCUT=400eV, k-spacing_relax=0.20/Angstrom, k-spacing_bandgap=0.15/Angstrom
# Created by:                       C.Kim, T.D.Huan, S.Krishnan, R. Ramprasad