data_1
_audit_creation_method   'Generated by vasp2cif'
_cell_length_a    8.74203671741
_cell_length_b    6.29049343914
_cell_length_c    6.37151982678
_cell_angle_alpha    93.4835582679
_cell_angle_beta    47.323287269
_cell_angle_gamma    95.1680114381

_symmetry_space_group_name_H-M    'P 1'
loop_
_atom_site_label
_atom_site_type_symbol
_atom_site_fract_x
_atom_site_fract_y
_atom_site_fract_z
_atom_site_occupancy
I1   I   0.541523399565250   0.983156684187406   0.536786564732665   1.0
I2   I   0.038170083640338   0.966620447039531   0.495220241091523   1.0
I3   I   0.992201123930926   0.490646541923525   0.009547231565598   1.0
H4   H   0.534907148060014   0.660353959287946   0.138164362161092   1.0
H5   H   0.446188704640512   0.646703272442721   0.977178026728147   1.0
H6   H   0.754029855786776   0.396928584637486   0.861923735881021   1.0
H7   H   0.644717808373933   0.337916899850995   0.724974585336653   1.0
H8   H   0.794233213348633   0.568403291929904   0.635267015813639   1.0
Sn9   Sn   0.068903984507976   0.993961629502081   0.951381550088826   1.0
N10   N   0.491198383868046   0.555754771418833   0.053900946958308   1.0
N11   N   0.684406294277508   0.460703917779625   0.799975739642498   1.0




# HOIP entry ID:                    0865
# Khazana ID:                       2715
# Organic cation source:            B.Saparov et al., Chem. Rev. 116, 4558 (2016)
# Label:                            Hydrazinium Tin Iodide
# Material class:                   Hybrid organic-inorganic perovskite ( MC_ino )
# Geometry class:                   Bulk crystalline materials ( GC_cry )
# Organic cation chemical formula:  NH2NH3
# Number of atom types:             4
# Total number of atoms:            11
# Atom types:                        H N  Sn I
# Number of each atom:               5 2  1 3
# Bandgap, HSE06 (eV):              1.577
# Bandgap, GGA (eV):                1.1843
# Kpoint for VBM:                   0, 0.5, 0.5
# Kpoint for CBM:                   0, 0.5, 0.5
# Dielectric constant, electronic:  6.1613
# Dielectric constant, ionic:       20.9602
# Dielectric constant, total:       27.1215
# Refractive index:                 2.4822
# Atomization energy (eV/atom):     -3.7661
# Relative energy1 (eV/atom):       0.5574
# Relative energy2 (eV/atom):       0.7322
# Volume of the unit cell (A^3):    256.55
# Density (g/cm^3):                 3.4466
# Tool:                             VASP
# Pseudopotential:                  PAW
# Note:                             ENCUT=400eV, k-spacing_relax=0.20/Angstrom, k-spacing_bandgap=0.15/Angstrom
# Created by:                       C.Kim, T.D.Huan, S.Krishnan, R. Ramprasad