data_1
_audit_creation_method   'Generated by vasp2cif'
_cell_length_a    4.36471322511
_cell_length_b    6.65120550809
_cell_length_c    8.65402185542
_cell_angle_alpha    83.037595575
_cell_angle_beta    105.847673568
_cell_angle_gamma    105.640004992

_symmetry_space_group_name_H-M    'P 1'
loop_
_atom_site_label
_atom_site_type_symbol
_atom_site_fract_x
_atom_site_fract_y
_atom_site_fract_z
_atom_site_occupancy
I1   I   0.304422593027510   0.005308669832409   0.581981308787768   1.0
I2   I   0.607379676081010   0.988181609529420   0.165518738523439   1.0
I3   I   0.763142369984152   0.537856217013392   0.877550115326876   1.0
H4   H   0.254216148904334   0.454031826469617   0.489500585587990   1.0
H5   H   0.275178523835251   0.676283075886822   0.378501652865893   1.0
H6   H   0.584610515250752   0.478993983921036   0.304442826292252   1.0
H7   H   0.246124622040810   0.277112547065933   0.274792032205958   1.0
H8   H   0.244391391740450   0.494945271477413   0.154797578622798   1.0
Sn9   Sn   0.957523628982884   0.011005235148694   0.864180030930150   1.0
N10   N   0.172938876278572   0.517759925846470   0.376135754338115   1.0
N11   N   0.328681653874178   0.438561637808775   0.272059376518733   1.0




# HOIP entry ID:                    0866
# Khazana ID:                       2716
# Organic cation source:            B.Saparov et al., Chem. Rev. 116, 4558 (2016)
# Label:                            Hydrazinium Tin Iodide
# Material class:                   Hybrid organic-inorganic perovskite ( MC_ino )
# Geometry class:                   Bulk crystalline materials ( GC_cry )
# Organic cation chemical formula:  NH2NH3
# Number of atom types:             4
# Total number of atoms:            11
# Atom types:                        H N  Sn I
# Number of each atom:               5 2  1 3
# Bandgap, HSE06 (eV):              2.5553
# Bandgap, GGA (eV):                1.8613
# Kpoint for VBM:                   0.0556, 0.5, 0.5
# Kpoint for CBM:                   0, 0.5, 0
# Dielectric constant, electronic:  5.1865
# Dielectric constant, ionic:       9.7291
# Dielectric constant, total:       14.9156
# Refractive index:                 2.2774
# Atomization energy (eV/atom):     -3.7845
# Relative energy1 (eV/atom):       0.539
# Relative energy2 (eV/atom):       0.7138
# Volume of the unit cell (A^3):    232.43
# Density (g/cm^3):                 3.8042
# Tool:                             VASP
# Pseudopotential:                  PAW
# Note:                             ENCUT=400eV, k-spacing_relax=0.20/Angstrom, k-spacing_bandgap=0.15/Angstrom
# Created by:                       C.Kim, T.D.Huan, S.Krishnan, R. Ramprasad