data_1
_audit_creation_method   'Generated by vasp2cif'
_cell_length_a    8.37757961948
_cell_length_b    6.79114768107
_cell_length_c    4.56133782268
_cell_angle_alpha    108.263221926
_cell_angle_beta    74.2856961578
_cell_angle_gamma    103.231235473

_symmetry_space_group_name_H-M    'P 1'
loop_
_atom_site_label
_atom_site_type_symbol
_atom_site_fract_x
_atom_site_fract_y
_atom_site_fract_z
_atom_site_occupancy
I1   I   0.423929887818908   0.086379588157136   0.279485031558487   1.0
I2   I   0.825654057003504   0.934502356799626   0.503480836069855   1.0
I3   I   0.097453815514157   0.461138183876862   0.129218809249828   1.0
H4   H   0.491660197043984   0.476486227326952   0.099016108662056   1.0
H5   H   0.586834576642303   0.703910440477571   0.026811380938433   1.0
H6   H   0.792554503811765   0.505711805684022   0.002859691373118   1.0
H7   H   0.705495657395034   0.306676513859237   0.736813119904745   1.0
H8   H   0.799236897308646   0.531679088840555   0.646353521442123   1.0
Sn9   Sn   0.136671751360708   0.004382845788506   0.890191291324236   1.0
N10   N   0.562315153309328   0.545455348500518   0.924373288108335   1.0
N11   N   0.724513502791588   0.468817600688965   0.827376921368810   1.0




# HOIP entry ID:                    0867
# Khazana ID:                       2717
# Organic cation source:            B.Saparov et al., Chem. Rev. 116, 4558 (2016)
# Label:                            Hydrazinium Tin Iodide
# Material class:                   Hybrid organic-inorganic perovskite ( MC_ino )
# Geometry class:                   Bulk crystalline materials ( GC_cry )
# Organic cation chemical formula:  NH2NH3
# Number of atom types:             4
# Total number of atoms:            11
# Atom types:                        H N  Sn I
# Number of each atom:               5 2  1 3
# Bandgap, HSE06 (eV):              3.014
# Bandgap, GGA (eV):                2.1864
# Kpoint for VBM:                   0.5, 0.5, 0
# Kpoint for CBM:                   0.5, 0.5, 0
# Dielectric constant, electronic:  5.0379
# Dielectric constant, ionic:       13.6685
# Dielectric constant, total:       18.7064
# Refractive index:                 2.2445
# Atomization energy (eV/atom):     -3.7771
# Relative energy1 (eV/atom):       0.5464
# Relative energy2 (eV/atom):       0.7212
# Volume of the unit cell (A^3):    234.26
# Density (g/cm^3):                 3.7745
# Tool:                             VASP
# Pseudopotential:                  PAW
# Note:                             ENCUT=400eV, k-spacing_relax=0.20/Angstrom, k-spacing_bandgap=0.15/Angstrom
# Created by:                       C.Kim, T.D.Huan, S.Krishnan, R. Ramprasad