data_1
_audit_creation_method   'Generated by vasp2cif'
_cell_length_a    8.02649197725
_cell_length_b    6.56126961105
_cell_length_c    4.73029788465
_cell_angle_alpha    88.1437597895
_cell_angle_beta    73.8056115713
_cell_angle_gamma    90.3045719633

_symmetry_space_group_name_H-M    'P 1'
loop_
_atom_site_label
_atom_site_type_symbol
_atom_site_fract_x
_atom_site_fract_y
_atom_site_fract_z
_atom_site_occupancy
I1   I   0.523150007976440   0.081225156597604   0.667773593122931   1.0
I2   I   0.099588698406322   0.930758173267670   0.403429068038854   1.0
I3   I   0.927986427693597   0.430399364117577   0.964725763092396   1.0
H4   H   0.516287458666930   0.484761809061155   0.931630313966942   1.0
H5   H   0.391086814521366   0.688735176233216   0.009193405038026   1.0
H6   H   0.225247458597735   0.376271127998628   0.153944930959113   1.0
H7   H   0.354007304273963   0.324394584057728   0.376518981855014   1.0
H8   H   0.221682412154529   0.526768562015761   0.432632196408363   1.0
Sn9   Sn   0.817592405439626   0.983221983611159   0.052274333659732   1.0
N10   N   0.446540325584309   0.572046405901965   0.099432522927110   1.0
N11   N   0.302690686685196   0.440147657137579   0.272694890931625   1.0




# HOIP entry ID:                    0868
# Khazana ID:                       2718
# Organic cation source:            B.Saparov et al., Chem. Rev. 116, 4558 (2016)
# Label:                            Hydrazinium Tin Iodide
# Material class:                   Hybrid organic-inorganic perovskite ( MC_ino )
# Geometry class:                   Bulk crystalline materials ( GC_cry )
# Organic cation chemical formula:  NH2NH3
# Number of atom types:             4
# Total number of atoms:            11
# Atom types:                        H N  Sn I
# Number of each atom:               5 2  1 3
# Bandgap, HSE06 (eV):              2.9649
# Bandgap, GGA (eV):                2.1832
# Kpoint for VBM:                   0.5, 0.5, 0
# Kpoint for CBM:                   -0.4, 0.25, 0
# Dielectric constant, electronic:  4.9947
# Dielectric constant, ionic:       12.2199
# Dielectric constant, total:       17.2146
# Refractive index:                 2.2349
# Atomization energy (eV/atom):     -3.7767
# Relative energy1 (eV/atom):       0.5468
# Relative energy2 (eV/atom):       0.7216
# Volume of the unit cell (A^3):    239.08
# Density (g/cm^3):                 3.6984
# Tool:                             VASP
# Pseudopotential:                  PAW
# Note:                             ENCUT=400eV, k-spacing_relax=0.20/Angstrom, k-spacing_bandgap=0.15/Angstrom
# Created by:                       C.Kim, T.D.Huan, S.Krishnan, R. Ramprasad