data_1
_audit_creation_method   'Generated by vasp2cif'
_cell_length_a    8.58948887749
_cell_length_b    4.39800845834
_cell_length_c    6.4089628417
_cell_angle_alpha    90.1415572938
_cell_angle_beta    89.8073352528
_cell_angle_gamma    74.3391655745

_symmetry_space_group_name_H-M    'P 1'
loop_
_atom_site_label
_atom_site_type_symbol
_atom_site_fract_x
_atom_site_fract_y
_atom_site_fract_z
_atom_site_occupancy
I1   I   0.436026282663481   0.046542300524795   0.007860854234360   1.0
I2   I   0.109502432997414   0.767092531313629   0.486295332910022   1.0
I3   I   0.853449179783429   0.348480271134973   0.985606835714324   1.0
H4   H   0.539357755670582   0.506745518620380   0.675616942704173   1.0
H5   H   0.475228378036538   0.560202165710712   0.433023019997964   1.0
H6   H   0.781924811776974   0.591703961740655   0.592337890853827   1.0
H7   H   0.738392554110072   0.603710642995066   0.335914642863808   1.0
H8   H   0.638119731797976   0.901740574165543   0.496665770702861   1.0
Sn9   Sn   0.146197803177154   0.695011690431149   0.002251094219237   1.0
N10   N   0.575449622761838   0.464139339691829   0.522738658324603   1.0
N11   N   0.688881447224539   0.658921003671176   0.484638957474894   1.0




# HOIP entry ID:                    0869
# Khazana ID:                       2719
# Organic cation source:            B.Saparov et al., Chem. Rev. 116, 4558 (2016)
# Label:                            Hydrazinium Tin Iodide
# Material class:                   Hybrid organic-inorganic perovskite ( MC_ino )
# Geometry class:                   Bulk crystalline materials ( GC_cry )
# Organic cation chemical formula:  NH2NH3
# Number of atom types:             4
# Total number of atoms:            11
# Atom types:                        H N  Sn I
# Number of each atom:               5 2  1 3
# Bandgap, HSE06 (eV):              2.0771
# Bandgap, GGA (eV):                1.5209
# Kpoint for VBM:                   0.5, 0, 0.5
# Kpoint for CBM:                   0, 0, 0.5
# Dielectric constant, electronic:  5.6897
# Dielectric constant, ionic:       18.9697
# Dielectric constant, total:       24.6594
# Refractive index:                 2.3853
# Atomization energy (eV/atom):     -3.7889
# Relative energy1 (eV/atom):       0.5345
# Relative energy2 (eV/atom):       0.7094
# Volume of the unit cell (A^3):    233.12
# Density (g/cm^3):                 3.793
# Tool:                             VASP
# Pseudopotential:                  PAW
# Note:                             ENCUT=400eV, k-spacing_relax=0.20/Angstrom, k-spacing_bandgap=0.15/Angstrom
# Created by:                       C.Kim, T.D.Huan, S.Krishnan, R. Ramprasad