data_1
_audit_creation_method   'Generated by vasp2cif'
_cell_length_a    8.22110156987
_cell_length_b    4.70804559606
_cell_length_c    6.58494796221
_cell_angle_alpha    92.3070760757
_cell_angle_beta    104.723718192
_cell_angle_gamma    74.8261798777

_symmetry_space_group_name_H-M    'P 1'
loop_
_atom_site_label
_atom_site_type_symbol
_atom_site_fract_x
_atom_site_fract_y
_atom_site_fract_z
_atom_site_occupancy
I1   I   0.473179505078264   0.170183015547792   0.993849818638445   1.0
I2   I   0.069271298213735   0.834851482839284   0.550155005774201   1.0
I3   I   0.898769142190481   0.438042796787698   0.010188658448847   1.0
H4   H   0.464966628519228   0.551001434426425   0.539349725555432   1.0
H5   H   0.582920802113868   0.771193303272852   0.654623659130586   1.0
H6   H   0.772062442631004   0.335337744747235   0.586021850792122   1.0
H7   H   0.654255898934565   0.369180285922511   0.329443393684556   1.0
H8   H   0.773876166250950   0.605759038305251   0.431787121854775   1.0
Sn9   Sn   0.184510224275428   0.822453962653299   0.025658656145119   1.0
N10   N   0.539452691976017   0.682775178202697   0.511950960190333   1.0
N11   N   0.695105199816439   0.482561757294889   0.463981149785560   1.0




# HOIP entry ID:                    0870
# Khazana ID:                       2720
# Organic cation source:            B.Saparov et al., Chem. Rev. 116, 4558 (2016)
# Label:                            Hydrazinium Tin Iodide
# Material class:                   Hybrid organic-inorganic perovskite ( MC_ino )
# Geometry class:                   Bulk crystalline materials ( GC_cry )
# Organic cation chemical formula:  NH2NH3
# Number of atom types:             4
# Total number of atoms:            11
# Atom types:                        H N  Sn I
# Number of each atom:               5 2  1 3
# Bandgap, HSE06 (eV):              2.957
# Bandgap, GGA (eV):                2.2163
# Kpoint for VBM:                   0.5, 0.0556, 0.3333
# Kpoint for CBM:                   0.4, 0, 0.25
# Dielectric constant, electronic:  5.084
# Dielectric constant, ionic:       14.1184
# Dielectric constant, total:       19.2023
# Refractive index:                 2.2548
# Atomization energy (eV/atom):     -3.7751
# Relative energy1 (eV/atom):       0.5483
# Relative energy2 (eV/atom):       0.7232
# Volume of the unit cell (A^3):    237.81
# Density (g/cm^3):                 3.7182
# Tool:                             VASP
# Pseudopotential:                  PAW
# Note:                             ENCUT=400eV, k-spacing_relax=0.20/Angstrom, k-spacing_bandgap=0.15/Angstrom
# Created by:                       C.Kim, T.D.Huan, S.Krishnan, R. Ramprasad