data_1
_audit_creation_method   'Generated by vasp2cif'
_cell_length_a    8.26750059354
_cell_length_b    6.46839658362
_cell_length_c    4.79311477472
_cell_angle_alpha    90.8378934352
_cell_angle_beta    106.357409329
_cell_angle_gamma    73.7994841725

_symmetry_space_group_name_H-M    'P 1'
loop_
_atom_site_label
_atom_site_type_symbol
_atom_site_fract_x
_atom_site_fract_y
_atom_site_fract_z
_atom_site_occupancy
I1   I   0.512380191234222   0.994551379798253   0.146098231352262   1.0
I2   I   0.089185082799240   0.999215959068138   0.431268371302188   1.0
I3   I   0.930540325123395   0.540083135375788   0.848727566238615   1.0
H4   H   0.503085213759775   0.555800135733506   0.477692485659652   1.0
H5   H   0.455290461187339   0.610520050549177   0.784380903241576   1.0
H6   H   0.204667461729784   0.573718850412980   0.426416627810639   1.0
H7   H   0.326897423318968   0.321611295460372   0.377661616345122   1.0
H8   H   0.277526279071594   0.372335993326416   0.690924239113912   1.0
Sn9   Sn   0.806514243503614   0.027356076194302   0.808392459586941   1.0
N10   N   0.478066677416130   0.488166813177422   0.648065983099222   1.0
N11   N   0.309086640855938   0.439040310903614   0.525721516249924   1.0




# HOIP entry ID:                    0871
# Khazana ID:                       2721
# Organic cation source:            B.Saparov et al., Chem. Rev. 116, 4558 (2016)
# Label:                            Hydrazinium Tin Iodide
# Material class:                   Hybrid organic-inorganic perovskite ( MC_ino )
# Geometry class:                   Bulk crystalline materials ( GC_cry )
# Organic cation chemical formula:  NH2NH3
# Number of atom types:             4
# Total number of atoms:            11
# Atom types:                        H N  Sn I
# Number of each atom:               5 2  1 3
# Bandgap, HSE06 (eV):              2.9496
# Bandgap, GGA (eV):                2.1894
# Kpoint for VBM:                   0.5, 0.5, 0
# Kpoint for CBM:                   -0.4, 0.0833, 0
# Dielectric constant, electronic:  5.1258
# Dielectric constant, ionic:       15.8299
# Dielectric constant, total:       20.9557
# Refractive index:                 2.264
# Atomization energy (eV/atom):     -3.7747
# Relative energy1 (eV/atom):       0.5487
# Relative energy2 (eV/atom):       0.7235
# Volume of the unit cell (A^3):    235.61
# Density (g/cm^3):                 3.7529
# Tool:                             VASP
# Pseudopotential:                  PAW
# Note:                             ENCUT=400eV, k-spacing_relax=0.20/Angstrom, k-spacing_bandgap=0.15/Angstrom
# Created by:                       C.Kim, T.D.Huan, S.Krishnan, R. Ramprasad