data_1
_audit_creation_method   'Generated by vasp2cif'
_cell_length_a    8.58990758483
_cell_length_b    4.36738168797
_cell_length_c    6.36638675985
_cell_angle_alpha    89.9745542588
_cell_angle_beta    90.034173351
_cell_angle_gamma    76.4518496732

_symmetry_space_group_name_H-M    'P 1'
loop_
_atom_site_label
_atom_site_type_symbol
_atom_site_fract_x
_atom_site_fract_y
_atom_site_fract_z
_atom_site_occupancy
I1   I   0.219595229766199   0.550614605924238   0.010030958085551   1.0
I2   I   0.952922053033490   0.223659666175998   0.510935414760176   1.0
I3   I   0.636541522210251   0.828009626977014   0.013084778932232   1.0
H4   H   0.561354256456006   0.463819195651361   0.647601359296665   1.0
H5   H   0.569297783838628   0.462452836190465   0.389007076168340   1.0
H6   H   0.300014603986774   0.765687134556025   0.638521425145541   1.0
H7   H   0.422216485484320   0.958233431007756   0.510629086490006   1.0
H8   H   0.305986309075209   0.761734044454698   0.373844914684312   1.0
Sn9   Sn   0.926010883915488   0.182709304470663   0.012325638499746   1.0
N10   N   0.494741726268025   0.454955022495447   0.514349242199472   1.0
N11   N   0.374459145965659   0.759815132096300   0.509040105737959   1.0




# HOIP entry ID:                    0872
# Khazana ID:                       2722
# Organic cation source:            B.Saparov et al., Chem. Rev. 116, 4558 (2016)
# Label:                            Hydrazinium Tin Iodide
# Material class:                   Hybrid organic-inorganic perovskite ( MC_ino )
# Geometry class:                   Bulk crystalline materials ( GC_cry )
# Organic cation chemical formula:  NH2NH3
# Number of atom types:             4
# Total number of atoms:            11
# Atom types:                        H N  Sn I
# Number of each atom:               5 2  1 3
# Bandgap, HSE06 (eV):              2.0106
# Bandgap, GGA (eV):                1.4842
# Kpoint for VBM:                   0.5, 0.0556, 0.5
# Kpoint for CBM:                   0, 0.0556, 0.5
# Dielectric constant, electronic:  5.824
# Dielectric constant, ionic:       46.4233
# Dielectric constant, total:       52.2473
# Refractive index:                 2.4133
# Atomization energy (eV/atom):     -3.7894
# Relative energy1 (eV/atom):       0.534
# Relative energy2 (eV/atom):       0.7089
# Volume of the unit cell (A^3):    232.19
# Density (g/cm^3):                 3.8082
# Tool:                             VASP
# Pseudopotential:                  PAW
# Note:                             ENCUT=400eV, k-spacing_relax=0.20/Angstrom, k-spacing_bandgap=0.15/Angstrom
# Created by:                       C.Kim, T.D.Huan, S.Krishnan, R. Ramprasad