data_1
_audit_creation_method   'Generated by vasp2cif'
_cell_length_a    6.58091569663
_cell_length_b    4.44731373982
_cell_length_c    8.40518959882
_cell_angle_alpha    104.410196733
_cell_angle_beta    86.465228139
_cell_angle_gamma    84.8572946739

_symmetry_space_group_name_H-M    'P 1'
loop_
_atom_site_label
_atom_site_type_symbol
_atom_site_fract_x
_atom_site_fract_y
_atom_site_fract_z
_atom_site_occupancy
I1   I   0.023990359967826   0.573038494499016   0.717876428796302   1.0
I2   I   0.515879939353553   0.248906074840228   0.036296999825865   1.0
I3   I   0.987019642197346   0.852154618169926   0.300052868669404   1.0
H4   H   0.501036960979768   0.894381695990582   0.386010808290301   1.0
H5   H   0.308768014570617   0.991586510046353   0.531273434992507   1.0
H6   H   0.716612565619677   0.162439696796312   0.554730411350334   1.0
H7   H   0.504117677439744   0.412478616415939   0.567799285143344   1.0
H8   H   0.543148894618511   0.230566775607741   0.720096364118412   1.0
Sn9   Sn   0.992355421612622   0.209592659424473   0.015495193305448   1.0
N10   N   0.463905823381701   0.927077308228149   0.510250372072029   1.0
N11   N   0.561234700258638   0.204777549981337   0.592817833436058   1.0




# HOIP entry ID:                    0873
# Khazana ID:                       2723
# Organic cation source:            B.Saparov et al., Chem. Rev. 116, 4558 (2016)
# Label:                            Hydrazinium Tin Iodide
# Material class:                   Hybrid organic-inorganic perovskite ( MC_ino )
# Geometry class:                   Bulk crystalline materials ( GC_cry )
# Organic cation chemical formula:  NH2NH3
# Number of atom types:             4
# Total number of atoms:            11
# Atom types:                        H N  Sn I
# Number of each atom:               5 2  1 3
# Bandgap, HSE06 (eV):              2.1182
# Bandgap, GGA (eV):                1.5115
# Kpoint for VBM:                   0.5, 0.0556, 0.5
# Kpoint for CBM:                   0.5, 0.5, 0.5
# Dielectric constant, electronic:  5.4998
# Dielectric constant, ionic:       14.3503
# Dielectric constant, total:       19.85
# Refractive index:                 2.3452
# Atomization energy (eV/atom):     -3.7874
# Relative energy1 (eV/atom):       0.5361
# Relative energy2 (eV/atom):       0.7109
# Volume of the unit cell (A^3):    236.4
# Density (g/cm^3):                 3.7404
# Tool:                             VASP
# Pseudopotential:                  PAW
# Note:                             ENCUT=400eV, k-spacing_relax=0.20/Angstrom, k-spacing_bandgap=0.15/Angstrom
# Created by:                       C.Kim, T.D.Huan, S.Krishnan, R. Ramprasad