data_1
_audit_creation_method   'Generated by vasp2cif'
_cell_length_a    8.56486509587
_cell_length_b    4.40990098007
_cell_length_c    6.42509452537
_cell_angle_alpha    90.3763090415
_cell_angle_beta    89.8144019827
_cell_angle_gamma    74.3004642679

_symmetry_space_group_name_H-M    'P 1'
loop_
_atom_site_label
_atom_site_type_symbol
_atom_site_fract_x
_atom_site_fract_y
_atom_site_fract_z
_atom_site_occupancy
I1   I   0.736108210044315   0.951446772475986   0.984048421419059   1.0
I2   I   0.989834958899712   0.369143508226946   0.484352970652792   1.0
I3   I   0.318371216908053   0.649769260172956   0.009314233381674   1.0
H4   H   0.353245591134212   0.144950833757544   0.443948583152811   1.0
H5   H   0.426643332340604   0.085132903142576   0.681528319497822   1.0
H6   H   0.615198493106982   0.191580838789096   0.333702703036368   1.0
H7   H   0.517010256172016   0.486793725335896   0.497791459458332   1.0
H8   H   0.664521786259209   0.179440663670311   0.587564825224504   1.0
Sn9   Sn   0.028532047433454   0.299447803002743   0.002887068877214   1.0
N10   N   0.457236223256003   0.047952728389189   0.526768132934487   1.0
N11   N   0.568657884445473   0.245040963036864   0.483893282364825   1.0




# HOIP entry ID:                    0874
# Khazana ID:                       2724
# Organic cation source:            B.Saparov et al., Chem. Rev. 116, 4558 (2016)
# Label:                            Hydrazinium Tin Iodide
# Material class:                   Hybrid organic-inorganic perovskite ( MC_ino )
# Geometry class:                   Bulk crystalline materials ( GC_cry )
# Organic cation chemical formula:  NH2NH3
# Number of atom types:             4
# Total number of atoms:            11
# Atom types:                        H N  Sn I
# Number of each atom:               5 2  1 3
# Bandgap, HSE06 (eV):              2.1496
# Bandgap, GGA (eV):                1.5824
# Kpoint for VBM:                   0.5, 0.0556, 0.5
# Kpoint for CBM:                   0.5, 0.5, 0.5
# Dielectric constant, electronic:  5.6471
# Dielectric constant, ionic:       16.6836
# Dielectric constant, total:       22.3307
# Refractive index:                 2.3764
# Atomization energy (eV/atom):     -3.7888
# Relative energy1 (eV/atom):       0.5347
# Relative energy2 (eV/atom):       0.7095
# Volume of the unit cell (A^3):    233.62
# Density (g/cm^3):                 3.7849
# Tool:                             VASP
# Pseudopotential:                  PAW
# Note:                             ENCUT=400eV, k-spacing_relax=0.20/Angstrom, k-spacing_bandgap=0.15/Angstrom
# Created by:                       C.Kim, T.D.Huan, S.Krishnan, R. Ramprasad