data_1
_audit_creation_method   'Generated by vasp2cif'
_cell_length_a    8.09721557848
_cell_length_b    6.97135549969
_cell_length_c    4.67613153457
_cell_angle_alpha    71.9966009482
_cell_angle_beta    106.230709643
_cell_angle_gamma    110.96417218

_symmetry_space_group_name_H-M    'P 1'
loop_
_atom_site_label
_atom_site_type_symbol
_atom_site_fract_x
_atom_site_fract_y
_atom_site_fract_z
_atom_site_occupancy
Sn1   Sn   0.820079426718657   0.019264188560946   0.671300944547156   1.0
I2   I   0.489581703244816   0.883322435375987   0.076398417431406   1.0
I3   I   0.123533044316318   0.115192144665130   0.274788973155779   1.0
I4   I   0.831738652979418   0.473081216914259   0.455426810817869   1.0
N5   N   0.451261418458287   0.429808223368973   0.780196193997597   1.0
H6   H   0.339567526769791   0.402822078062719   0.607232727671949   1.0
H7   H   0.443755395572033   0.291902171767042   0.949110454351597   1.0
H8   H   0.566529921319862   0.467541231617531   0.692147204959710   1.0
H9   H   0.455512910620840   0.550676309667445   0.869928273066883   1.0




# HOIP entry ID:                    0875
# Khazana ID:                       2725
# Organic cation source:            T.D.Huan et al., Phys. Rev. B 93,094105(2016)
# Label:                            Ammonium Tin Iodide
# Material class:                   Hybrid organic-inorganic perovskite ( MC_ino )
# Geometry class:                   Bulk crystalline materials ( GC_cry )
# Organic cation chemical formula:  NH4
# Number of atom types:             4
# Total number of atoms:            9
# Atom types:                        H N  Sn I
# Number of each atom:               4 1  1 3
# Bandgap, HSE06 (eV):              3.1557
# Bandgap, GGA (eV):                2.3074
# Kpoint for VBM:                   0.5, 0.5, 0
# Kpoint for CBM:                   0.5, 0.5, 0
# Dielectric constant, electronic:  4.7802
# Dielectric constant, ionic:       16.5511
# Dielectric constant, total:       21.3313
# Refractive index:                 2.1864
# Atomization energy (eV/atom):     -3.5276
# Relative energy1 (eV/atom):       0.5174
# Relative energy2 (eV/atom):       0.7311
# Volume of the unit cell (A^3):    230.14
# Density (g/cm^3):                 3.7338
# Tool:                             VASP
# Pseudopotential:                  PAW
# Note:                             ENCUT=400eV, k-spacing_relax=0.20/Angstrom, k-spacing_bandgap=0.15/Angstrom
# Created by:                       C.Kim, T.D.Huan, S.Krishnan, R. Ramprasad