data_1
_audit_creation_method   'Generated by vasp2cif'
_cell_length_a    6.42553319588
_cell_length_b    6.4276201958
_cell_length_c    6.43364973801
_cell_angle_alpha    81.9624026615
_cell_angle_beta    82.1607828222
_cell_angle_gamma    82.2434593675

_symmetry_space_group_name_H-M    'P 1'
loop_
_atom_site_label
_atom_site_type_symbol
_atom_site_fract_x
_atom_site_fract_y
_atom_site_fract_z
_atom_site_occupancy
Sn1   Sn   0.982106819994407   0.982348548004921   0.038030942139585   1.0
I2   I   0.022825447468925   0.858172830467169   0.509257795291063   1.0
I3   I   0.453317761252535   0.023684511315061   0.913630923481612   1.0
I4   I   0.858465686635171   0.453262752819100   0.078896884308662   1.0
N5   N   0.533457894271535   0.534159873577110   0.587076279164130   1.0
H6   H   0.392582250721375   0.625973336388341   0.555136699093467   1.0
H7   H   0.500630872092437   0.394554392400345   0.681537827799822   1.0
H8   H   0.622503172099371   0.498919830059364   0.446051381002455   1.0
H9   H   0.618430095464227   0.617243924968591   0.665331267719168   1.0




# HOIP entry ID:                    0876
# Khazana ID:                       2726
# Organic cation source:            T.D.Huan et al., Phys. Rev. B 93,094105(2016)
# Label:                            Ammonium Tin Iodide
# Material class:                   Hybrid organic-inorganic perovskite ( MC_ino )
# Geometry class:                   Bulk crystalline materials ( GC_cry )
# Organic cation chemical formula:  NH4
# Number of atom types:             4
# Total number of atoms:            9
# Atom types:                        H N  Sn I
# Number of each atom:               4 1  1 3
# Bandgap, HSE06 (eV):              2.3071
# Bandgap, GGA (eV):                1.7199
# Kpoint for VBM:                   0.5, 0.5, 0.5
# Kpoint for CBM:                   0.3947, 0.3947, 0.3947
# Dielectric constant, electronic:  4.8689
# Dielectric constant, ionic:       6.8686
# Dielectric constant, total:       11.7375
# Refractive index:                 2.2066
# Atomization energy (eV/atom):     -3.5127
# Relative energy1 (eV/atom):       0.5323
# Relative energy2 (eV/atom):       0.746
# Volume of the unit cell (A^3):    258.82
# Density (g/cm^3):                 3.32
# Tool:                             VASP
# Pseudopotential:                  PAW
# Note:                             ENCUT=400eV, k-spacing_relax=0.20/Angstrom, k-spacing_bandgap=0.15/Angstrom
# Created by:                       C.Kim, T.D.Huan, S.Krishnan, R. Ramprasad