data_1
_audit_creation_method   'Generated by vasp2cif'
_cell_length_a    8.10302199025
_cell_length_b    6.9636825877
_cell_length_c    4.67493217599
_cell_angle_alpha    107.938030719
_cell_angle_beta    106.216085741
_cell_angle_gamma    69.303961926

_symmetry_space_group_name_H-M    'P 1'
loop_
_atom_site_label
_atom_site_type_symbol
_atom_site_fract_x
_atom_site_fract_y
_atom_site_fract_z
_atom_site_occupancy
Sn1   Sn   0.171810618919771   0.051722341824743   0.279467091086531   1.0
I2   I   0.501243600170852   0.917982941692053   0.875254822402354   1.0
I3   I   0.868936187112453   0.146938820171620   0.675883237864667   1.0
I4   I   0.162411752638711   0.505076398156817   0.494583501205327   1.0
N5   N   0.543342358972637   0.463501170817047   0.172418845120191   1.0
H6   H   0.654819259278838   0.435740775428982   0.345188736857104   1.0
H7   H   0.550950244291634   0.326851878713867   0.001171686010054   1.0
H8   H   0.428392258554169   0.499081032026133   0.259667744394129   1.0
H9   H   0.538833720061000   0.586194641168724   0.085914335059691   1.0




# HOIP entry ID:                    0877
# Khazana ID:                       2727
# Organic cation source:            T.D.Huan et al., Phys. Rev. B 93,094105(2016)
# Label:                            Ammonium Tin Iodide
# Material class:                   Hybrid organic-inorganic perovskite ( MC_ino )
# Geometry class:                   Bulk crystalline materials ( GC_cry )
# Organic cation chemical formula:  NH4
# Number of atom types:             4
# Total number of atoms:            9
# Atom types:                        H N  Sn I
# Number of each atom:               4 1  1 3
# Bandgap, HSE06 (eV):              3.1538
# Bandgap, GGA (eV):                2.3042
# Kpoint for VBM:                   0.5, 0.5, 0
# Kpoint for CBM:                   0.5, 0.5, 0
# Dielectric constant, electronic:  4.7775
# Dielectric constant, ionic:       14.5837
# Dielectric constant, total:       19.3612
# Refractive index:                 2.1858
# Atomization energy (eV/atom):     -3.5277
# Relative energy1 (eV/atom):       0.5173
# Relative energy2 (eV/atom):       0.7309
# Volume of the unit cell (A^3):    230.43
# Density (g/cm^3):                 3.7291
# Tool:                             VASP
# Pseudopotential:                  PAW
# Note:                             ENCUT=400eV, k-spacing_relax=0.20/Angstrom, k-spacing_bandgap=0.15/Angstrom
# Created by:                       C.Kim, T.D.Huan, S.Krishnan, R. Ramprasad