data_1
_audit_creation_method   'Generated by vasp2cif'
_cell_length_a    4.67598682936
_cell_length_b    6.93855975741
_cell_length_c    8.09550406116
_cell_angle_alpha    70.0823528888
_cell_angle_beta    73.7731818026
_cell_angle_gamma    72.0634632967

_symmetry_space_group_name_H-M    'P 1'
loop_
_atom_site_label
_atom_site_type_symbol
_atom_site_fract_x
_atom_site_fract_y
_atom_site_fract_z
_atom_site_occupancy
Sn1   Sn   0.720860991748133   0.046339655340759   0.169882058969698   1.0
I2   I   0.119399225365491   0.920400180894084   0.497643785305833   1.0
I3   I   0.322324670227772   0.140884871883927   0.867898463295511   1.0
I4   I   0.503267888699774   0.499797499165155   0.166146034482438   1.0
N5   N   0.816877115465225   0.465203843684513   0.549458967795587   1.0
H6   H   0.645399863474552   0.437278930067826   0.661291383410415   1.0
H7   H   0.991265707743565   0.329965687155358   0.556302444860975   1.0
H8   H   0.729259601502214   0.497194672079139   0.435600568409917   1.0
H9   H   0.899794935773251   0.590354659729186   0.544096293469600   1.0




# HOIP entry ID:                    0878
# Khazana ID:                       2728
# Organic cation source:            T.D.Huan et al., Phys. Rev. B 93,094105(2016)
# Label:                            Ammonium Tin Iodide
# Material class:                   Hybrid organic-inorganic perovskite ( MC_ino )
# Geometry class:                   Bulk crystalline materials ( GC_cry )
# Organic cation chemical formula:  NH4
# Number of atom types:             4
# Total number of atoms:            9
# Atom types:                        H N  Sn I
# Number of each atom:               4 1  1 3
# Bandgap, HSE06 (eV):              3.0864
# Bandgap, GGA (eV):                2.3363
# Kpoint for VBM:                   0.2222, 0.0833, 0.0833
# Kpoint for CBM:                   0, 0.5, 0
# Dielectric constant, electronic:  4.8046
# Dielectric constant, ionic:       15.8485
# Dielectric constant, total:       20.6531
# Refractive index:                 2.1919
# Atomization energy (eV/atom):     -3.5277
# Relative energy1 (eV/atom):       0.5173
# Relative energy2 (eV/atom):       0.731
# Volume of the unit cell (A^3):    230.43
# Density (g/cm^3):                 3.7291
# Tool:                             VASP
# Pseudopotential:                  PAW
# Note:                             ENCUT=400eV, k-spacing_relax=0.20/Angstrom, k-spacing_bandgap=0.15/Angstrom
# Created by:                       C.Kim, T.D.Huan, S.Krishnan, R. Ramprasad