data_1
_audit_creation_method   'Generated by vasp2cif'
_cell_length_a    6.53961754161
_cell_length_b    6.65429052427
_cell_length_c    6.86679430062
_cell_angle_alpha    90.1370389822
_cell_angle_beta    90.0060871865
_cell_angle_gamma    98.6962007065

_symmetry_space_group_name_H-M    'P 1'
loop_
_atom_site_label
_atom_site_type_symbol
_atom_site_fract_x
_atom_site_fract_y
_atom_site_fract_z
_atom_site_occupancy
C1   C   0.621092076594067   0.335540791088619   0.472977355385368   1.0
C2   C   0.384958846279147   0.533642058337321   0.655446520585421   1.0
C3   C   0.396520033290017   0.547486152447725   0.294427799951272   1.0
H4   H   0.711466151334314   0.331315254590891   0.605510719186938   1.0
H5   H   0.478280272798266   0.521970064404705   0.785109430301219   1.0
H6   H   0.497914049968316   0.545782451771693   0.168816609078696   1.0
H7   H   0.334402055159387   0.690150064855040   0.302632152486488   1.0
H8   H   0.323302487842859   0.676751933595526   0.654239805656267   1.0
H9   H   0.638797970802884   0.649546516450862   0.483854429308181   1.0
H10   H   0.271454419580642   0.419205337609114   0.288800498696993   1.0
H11   H   0.498885066205503   0.204605325105078   0.465123439109981   1.0
H12   H   0.260137942195442   0.405278882319351   0.646342092714946   1.0
H13   H   0.719910931141527   0.342361649473077   0.344937582670816   1.0
I14   I   0.442548311456534   0.038095491943693   0.970503831585340   1.0
I15   I   0.925728304031509   0.517324062267967   0.969842729882920   1.0
I16   I   0.973225435279559   0.949989746538613   0.462827612424732   1.0
N17   N   0.520484045347636   0.526450395582884   0.477498713078980   1.0
Sn18   Sn   0.979041600692383   0.973683821617854   0.008598677895456   1.0




# HOIP entry ID:                    0880
# Khazana ID:                       2730
# Organic cation source:            A. Mancini et al., J. Solid State Chem. 240, 55 (2016)
# Label:                            Trimethylammonium Tin Iodide
# Material class:                   Hybrid organic-inorganic perovskite ( MC_ino )
# Geometry class:                   Bulk crystalline materials ( GC_cry )
# Organic cation chemical formula:  (CH3)3NH
# Number of atom types:             5
# Total number of atoms:            18
# Atom types:                       C H N  Sn I
# Number of each atom:              3 10 1  1 3
# Bandgap, HSE06 (eV):              1.9704
# Bandgap, GGA (eV):                1.3633
# Kpoint for VBM:                   0.5, 0.5, 0.5
# Kpoint for CBM:                   0.5, 0.5, 0.5
# Dielectric constant, electronic:  4.7259
# Dielectric constant, ionic:       5.3456
# Dielectric constant, total:       10.0715
# Refractive index:                 2.1739
# Atomization energy (eV/atom):     -4.2926
# Relative energy1 (eV/atom):       0.0605
# Relative energy2 (eV/atom):       0.1674
# Volume of the unit cell (A^3):    295.38
# Density (g/cm^3):                 3.1457
# Tool:                             VASP
# Pseudopotential:                  PAW
# Note:                             ENCUT=400eV, k-spacing_relax=0.20/Angstrom, k-spacing_bandgap=0.15/Angstrom
# Created by:                       C.Kim, T.D.Huan, S.Krishnan, R. Ramprasad