data_1
_audit_creation_method   'Generated by vasp2cif'
_cell_length_a    6.6515030273
_cell_length_b    6.59583071848
_cell_length_c    6.79052282969
_cell_angle_alpha    94.5574151454
_cell_angle_beta    87.7309384782
_cell_angle_gamma    83.7981083902

_symmetry_space_group_name_H-M    'P 1'
loop_
_atom_site_label
_atom_site_type_symbol
_atom_site_fract_x
_atom_site_fract_y
_atom_site_fract_z
_atom_site_occupancy
C1   C   0.354237744473195   0.337963443814417   0.483575105650004   1.0
C2   C   0.545930360371969   0.597907016773853   0.330747571674635   1.0
C3   C   0.644340503098064   0.473837591906943   0.654688934842660   1.0
H4   H   0.222440242137402   0.384914020826322   0.400849661730796   1.0
H5   H   0.417142881111530   0.631487821263285   0.240206840383834   1.0
H6   H   0.582230307233665   0.436294341457263   0.796402207436280   1.0
H7   H   0.725709750899973   0.607832425336873   0.672970960187300   1.0
H8   H   0.619236809856005   0.735110547989130   0.367337123679072   1.0
H9   H   0.371362509297704   0.637922600992241   0.592558129690993   1.0
H10   H   0.742861927456396   0.343266638075690   0.583325152288346   1.0
H11   H   0.453549091501124   0.218102204029322   0.397002227397159   1.0
H12   H   0.654551830283715   0.478321530064392   0.255223491195053   1.0
H13   H   0.308467162053951   0.287652795510283   0.625428269170648   1.0
I14   I   0.528303671989335   0.002553549402052   0.965661622798400   1.0
I15   I   0.062308232922462   0.503063128917354   0.992245295076010   1.0
I16   I   0.026778854555125   0.924220387741066   0.516084161811939   1.0
N17   N   0.471086765390815   0.521058803401743   0.521624410419378   1.0
Sn18   Sn   0.986921355367571   0.965961152497819   0.970068834567677   1.0




# HOIP entry ID:                    0881
# Khazana ID:                       2731
# Organic cation source:            A. Mancini et al., J. Solid State Chem. 240, 55 (2016)
# Label:                            Trimethylammonium Tin Iodide
# Material class:                   Hybrid organic-inorganic perovskite ( MC_ino )
# Geometry class:                   Bulk crystalline materials ( GC_cry )
# Organic cation chemical formula:  (CH3)3NH
# Number of atom types:             5
# Total number of atoms:            18
# Atom types:                       C H N  Sn I
# Number of each atom:              3 10 1  1 3
# Bandgap, HSE06 (eV):              2.1528
# Bandgap, GGA (eV):                1.4971
# Kpoint for VBM:                   0.5, 0.5, 0.5
# Kpoint for CBM:                   0.5, 0.5, 0.5
# Dielectric constant, electronic:  4.7458
# Dielectric constant, ionic:       5.3425
# Dielectric constant, total:       10.0883
# Refractive index:                 2.1785
# Atomization energy (eV/atom):     -4.292
# Relative energy1 (eV/atom):       0.0611
# Relative energy2 (eV/atom):       0.168
# Volume of the unit cell (A^3):    294.89
# Density (g/cm^3):                 3.1509
# Tool:                             VASP
# Pseudopotential:                  PAW
# Note:                             ENCUT=400eV, k-spacing_relax=0.20/Angstrom, k-spacing_bandgap=0.15/Angstrom
# Created by:                       C.Kim, T.D.Huan, S.Krishnan, R. Ramprasad