data_1
_audit_creation_method   'Generated by vasp2cif'
_cell_length_a    6.76939261348
_cell_length_b    6.58313528506
_cell_length_c    6.6817191735
_cell_angle_alpha    95.4927340098
_cell_angle_beta    92.6162211982
_cell_angle_gamma    95.3750381286

_symmetry_space_group_name_H-M    'P 1'
loop_
_atom_site_label
_atom_site_type_symbol
_atom_site_fract_x
_atom_site_fract_y
_atom_site_fract_z
_atom_site_occupancy
C1   C   0.479124411309059   0.341787189237485   0.646836774234643   1.0
C2   C   0.341204027840206   0.609616447263903   0.453085522016268   1.0
C3   C   0.648986104607151   0.457658251024445   0.347359706188411   1.0
H4   H   0.407057148996876   0.398436709379340   0.780751949081141   1.0
H5   H   0.257247844576189   0.650000243505340   0.583455391051059   1.0
H6   H   0.789267935174254   0.412178657050166   0.406009988275977   1.0
H7   H   0.673884384208066   0.587682370039477   0.259924671901948   1.0
H8   H   0.385956863204317   0.744663667961936   0.377340728260407   1.0
H9   H   0.611104719757672   0.633709888055917   0.616175915464147   1.0
H10   H   0.565144655884269   0.328498467411493   0.256597317790250   1.0
H11   H   0.378735395302383   0.226706173551663   0.554793143187967   1.0
H12   H   0.254466328033172   0.494137197319651   0.348119206350995   1.0
H13   H   0.617174177039983   0.280390303107057   0.687718999714020   1.0
I14   I   0.959868794430516   0.989294996288585   0.471656317138415   1.0
I15   I   0.992979123675460   0.500201001828749   0.932112971730813   1.0
I16   I   0.520669236833938   0.920023901793532   0.968676178936094   1.0
N17   N   0.527130343843422   0.519734629448179   0.523336524938577   1.0
Sn18   Sn   0.974118505283106   0.963849905733020   0.014308693738768   1.0




# HOIP entry ID:                    0882
# Khazana ID:                       2732
# Organic cation source:            A. Mancini et al., J. Solid State Chem. 240, 55 (2016)
# Label:                            Trimethylammonium Tin Iodide
# Material class:                   Hybrid organic-inorganic perovskite ( MC_ino )
# Geometry class:                   Bulk crystalline materials ( GC_cry )
# Organic cation chemical formula:  (CH3)3NH
# Number of atom types:             5
# Total number of atoms:            18
# Atom types:                       C H N  Sn I
# Number of each atom:              3 10 1  1 3
# Bandgap, HSE06 (eV):              2.2395
# Bandgap, GGA (eV):                1.6415
# Kpoint for VBM:                   0.5, 0.5, 0.5
# Kpoint for CBM:                   0.5, 0.5, 0.5
# Dielectric constant, electronic:  4.7352
# Dielectric constant, ionic:       5.3749
# Dielectric constant, total:       10.1101
# Refractive index:                 2.1761
# Atomization energy (eV/atom):     -4.2916
# Relative energy1 (eV/atom):       0.0615
# Relative energy2 (eV/atom):       0.1684
# Volume of the unit cell (A^3):    294.64
# Density (g/cm^3):                 3.1536
# Tool:                             VASP
# Pseudopotential:                  PAW
# Note:                             ENCUT=400eV, k-spacing_relax=0.20/Angstrom, k-spacing_bandgap=0.15/Angstrom
# Created by:                       C.Kim, T.D.Huan, S.Krishnan, R. Ramprasad