data_1
_audit_creation_method   'Generated by vasp2cif'
_cell_length_a    6.73917393646
_cell_length_b    6.73863890393
_cell_length_c    6.8132888811
_cell_angle_alpha    79.4191533966
_cell_angle_beta    86.7009247527
_cell_angle_gamma    93.3041900675

_symmetry_space_group_name_H-M    'P 1'
loop_
_atom_site_label
_atom_site_type_symbol
_atom_site_fract_x
_atom_site_fract_y
_atom_site_fract_z
_atom_site_occupancy
C1   C   0.721100484488602   0.500441064191442   0.564144379246812   1.0
C2   C   0.414906445260406   0.683978484230202   0.603731108846517   1.0
C3   C   0.445580384421660   0.471793828143994   0.339439471214718   1.0
H4   H   0.793860099344201   0.601980057909657   0.648852865301890   1.0
H5   H   0.350537614360356   0.553869886919458   0.712980909996247   1.0
H6   H   0.376862997390098   0.340620147861841   0.444719015982777   1.0
H7   H   0.552472761869261   0.424546914457970   0.234188408702345   1.0
H8   H   0.499441693213058   0.787708703752322   0.678357713712657   1.0
H9   H   0.618989284447544   0.732170725041968   0.357197918757898   1.0
H10   H   0.332134820950508   0.556389393361002   0.259947117835267   1.0
H11   H   0.653616590810572   0.365150450021069   0.663803686324904   1.0
H12   H   0.298614231882169   0.761380715337950   0.521775860222085   1.0
H13   H   0.825662482933716   0.460546047763060   0.452582656704273   1.0
I14   I   0.485628946710740   0.052621370728133   0.012418736606641   1.0
I15   I   0.975174207758059   0.618745539580260   0.022390958579294   1.0
I16   I   0.965367259471734   0.038714448979199   0.445137672956513   1.0
N17   N   0.555481658663552   0.607531036831382   0.457503349735802   1.0
Sn18   Sn   0.034618036023772   0.069901184889062   0.998458169273349   1.0




# HOIP entry ID:                    0883
# Khazana ID:                       2733
# Organic cation source:            A. Mancini et al., J. Solid State Chem. 240, 55 (2016)
# Label:                            Trimethylammonium Tin Iodide
# Material class:                   Hybrid organic-inorganic perovskite ( MC_ino )
# Geometry class:                   Bulk crystalline materials ( GC_cry )
# Organic cation chemical formula:  (CH3)3NH
# Number of atom types:             5
# Total number of atoms:            18
# Atom types:                       C H N  Sn I
# Number of each atom:              3 10 1  1 3
# Bandgap, HSE06 (eV):              2.5946
# Bandgap, GGA (eV):                1.9257
# Kpoint for VBM:                   0.4474, 0.4474, 0.4474
# Kpoint for CBM:                   0.4737, 0.5, 0.4737
# Dielectric constant, electronic:  4.3402
# Dielectric constant, ionic:       3.9639
# Dielectric constant, total:       8.3041
# Refractive index:                 2.0833
# Atomization energy (eV/atom):     -4.2879
# Relative energy1 (eV/atom):       0.0653
# Relative energy2 (eV/atom):       0.1721
# Volume of the unit cell (A^3):    302.91
# Density (g/cm^3):                 3.0675
# Tool:                             VASP
# Pseudopotential:                  PAW
# Note:                             ENCUT=400eV, k-spacing_relax=0.20/Angstrom, k-spacing_bandgap=0.15/Angstrom
# Created by:                       C.Kim, T.D.Huan, S.Krishnan, R. Ramprasad