data_1
_audit_creation_method   'Generated by vasp2cif'
_cell_length_a    6.66543626177
_cell_length_b    6.75277859995
_cell_length_c    6.57045989202
_cell_angle_alpha    92.5442217919
_cell_angle_beta    95.9760465561
_cell_angle_gamma    92.783971309

_symmetry_space_group_name_H-M    'P 1'
loop_
_atom_site_label
_atom_site_type_symbol
_atom_site_fract_x
_atom_site_fract_y
_atom_site_fract_z
_atom_site_occupancy
C1   C   0.646979293971739   0.615540564790348   0.409727041069231   1.0
C2   C   0.356048148186345   0.748732523189426   0.575055569089112   1.0
C3   C   0.503483566696209   0.435815847179793   0.692297763224818   1.0
H4   H   0.720018491922310   0.479120360670598   0.376594812494888   1.0
H5   H   0.333127950308601   0.840120341538667   0.443553546365931   1.0
H6   H   0.556720995926870   0.295519002131964   0.636680650977896   1.0
H7   H   0.365315196184308   0.412149836002797   0.764263859945999   1.0
H8   H   0.212479101913607   0.703100372208446   0.628606116216109   1.0
H9   H   0.359300115938748   0.483505348368594   0.403801449971413   1.0
H10   H   0.620754375679185   0.514539998792316   0.798195782501799   1.0
H11   H   0.601969462655349   0.689171571210765   0.269236012487193   1.0
H12   H   0.454311531568446   0.828046348675067   0.698764073475238   1.0
H13   H   0.745951555517818   0.715495044795868   0.515145510251608   1.0
I14   I   0.983998247925469   0.132487432724972   0.584442630501604   1.0
I15   I   0.037592178529688   0.621194486465389   0.050905864019243   1.0
I16   I   0.485486679435454   0.115509503612020   0.118512555343462   1.0
N17   N   0.458575284605379   0.564092155891851   0.511447648120658   1.0
Sn18   Sn   0.026697823034537   0.076379261751053   0.050419113943742   1.0




# HOIP entry ID:                    0884
# Khazana ID:                       2734
# Organic cation source:            A. Mancini et al., J. Solid State Chem. 240, 55 (2016)
# Label:                            Trimethylammonium Tin Iodide
# Material class:                   Hybrid organic-inorganic perovskite ( MC_ino )
# Geometry class:                   Bulk crystalline materials ( GC_cry )
# Organic cation chemical formula:  (CH3)3NH
# Number of atom types:             5
# Total number of atoms:            18
# Atom types:                       C H N  Sn I
# Number of each atom:              3 10 1  1 3
# Bandgap, HSE06 (eV):              1.9374
# Bandgap, GGA (eV):                1.3905
# Kpoint for VBM:                   0.5, 0.5, 0.5
# Kpoint for CBM:                   0.4474, 0.5, 0.4474
# Dielectric constant, electronic:  4.9202
# Dielectric constant, ionic:       8.9985
# Dielectric constant, total:       13.9186
# Refractive index:                 2.2181
# Atomization energy (eV/atom):     -4.2908
# Relative energy1 (eV/atom):       0.0623
# Relative energy2 (eV/atom):       0.1692
# Volume of the unit cell (A^3):    293.42
# Density (g/cm^3):                 3.1667
# Tool:                             VASP
# Pseudopotential:                  PAW
# Note:                             ENCUT=400eV, k-spacing_relax=0.20/Angstrom, k-spacing_bandgap=0.15/Angstrom
# Created by:                       C.Kim, T.D.Huan, S.Krishnan, R. Ramprasad