data_1
_audit_creation_method   'Generated by vasp2cif'
_cell_length_a    5.03399501438
_cell_length_b    8.18747386271
_cell_length_c    7.86330446187
_cell_angle_alpha    104.228196417
_cell_angle_beta    74.1003016132
_cell_angle_gamma    89.7290161553

_symmetry_space_group_name_H-M    'P 1'
loop_
_atom_site_label
_atom_site_type_symbol
_atom_site_fract_x
_atom_site_fract_y
_atom_site_fract_z
_atom_site_occupancy
C1   C   0.470243903358501   0.576452228437894   0.400237310174042   1.0
C2   C   0.734645067119708   0.776448337820810   0.575615114844140   1.0
C3   C   0.720305128575035   0.475481338696049   0.593220909923772   1.0
H4   H   0.356293763591651   0.685967895265961   0.391060525431065   1.0
H5   H   0.909596025723822   0.746742716468482   0.452762531191375   1.0
H6   H   0.585176854582365   0.372296748093845   0.599236647363171   1.0
H7   H   0.781840777898182   0.514117245855203   0.718932539221782   1.0
H8   H   0.605417769145632   0.883742354862505   0.576433269166095   1.0
H9   H   0.391372195588978   0.656847743905246   0.685508165965274   1.0
H10   H   0.901721515932955   0.438238439054551   0.474749630974180   1.0
H11   H   0.652814742048584   0.540493618872283   0.282207771418982   1.0
H12   H   0.803104290557350   0.802691594291652   0.699016756408270   1.0
H13   H   0.343387807488853   0.469581187150297   0.407241119080958   1.0
I14   I   0.474862797692324   0.212659254712385   0.952249829870809   1.0
I15   I   0.062096127435431   0.704139680230121   0.006250521914815   1.0
I16   I   0.225267661340574   0.093264119334684   0.477585305619598   1.0
N17   N   0.564808078996784   0.624112458005577   0.571747800026209   1.0
Sn18   Sn   0.952305492923379   0.084303038942572   0.165284251405510   1.0




# HOIP entry ID:                    0885
# Khazana ID:                       2735
# Organic cation source:            A. Mancini et al., J. Solid State Chem. 240, 55 (2016)
# Label:                            Trimethylammonium Tin Iodide
# Material class:                   Hybrid organic-inorganic perovskite ( MC_ino )
# Geometry class:                   Bulk crystalline materials ( GC_cry )
# Organic cation chemical formula:  (CH3)3NH
# Number of atom types:             5
# Total number of atoms:            18
# Atom types:                       C H N  Sn I
# Number of each atom:              3 10 1  1 3
# Bandgap, HSE06 (eV):              2.875
# Bandgap, GGA (eV):                2.1242
# Kpoint for VBM:                   0.375, -0.1, 0.1667
# Kpoint for CBM:                   0, 0.1, 0.5
# Dielectric constant, electronic:  3.9954
# Dielectric constant, ionic:       3.567
# Dielectric constant, total:       7.5624
# Refractive index:                 1.9988
# Atomization energy (eV/atom):     -4.2785
# Relative energy1 (eV/atom):       0.0746
# Relative energy2 (eV/atom):       0.1815
# Volume of the unit cell (A^3):    301.23
# Density (g/cm^3):                 3.0846
# Tool:                             VASP
# Pseudopotential:                  PAW
# Note:                             ENCUT=400eV, k-spacing_relax=0.20/Angstrom, k-spacing_bandgap=0.15/Angstrom
# Created by:                       C.Kim, T.D.Huan, S.Krishnan, R. Ramprasad