data_1
_audit_creation_method   'Generated by vasp2cif'
_cell_length_a    9.23937610254
_cell_length_b    4.96714259886
_cell_length_c    6.55972222689
_cell_angle_alpha    97.0372581343
_cell_angle_beta    95.9947051835
_cell_angle_gamma    93.4086823652

_symmetry_space_group_name_H-M    'P 1'
loop_
_atom_site_label
_atom_site_type_symbol
_atom_site_fract_x
_atom_site_fract_y
_atom_site_fract_z
_atom_site_occupancy
C1   C   0.475011457220638   0.532241703761699   0.744724330916078   1.0
C2   C   0.485309907080307   0.827464431335706   0.465146324551022   1.0
C3   C   0.658685287575572   0.469060697109455   0.485654398564627   1.0
H4   H   0.428620480756187   0.692112464127526   0.841380938640924   1.0
H5   H   0.431451768412742   0.980583227436895   0.556873720536736   1.0
H6   H   0.717562915168088   0.347448924265841   0.589882809062729   1.0
H7   H   0.736063612844234   0.586065072890868   0.410743297908702   1.0
H8   H   0.559300154938427   0.917727986770153   0.369412816115030   1.0
H9   H   0.647042093932775   0.801011643638716   0.708592371725011   1.0
H10   H   0.581974130772956   0.343486179392336   0.370413306213798   1.0
H11   H   0.387735824411422   0.407555524589476   0.645607383409669   1.0
H12   H   0.403646097643246   0.686734670218108   0.369088006724716   1.0
H13   H   0.540937658384777   0.410368663183157   0.840204995267591   1.0
I14   I   0.060067030269948   0.746445150375422   0.525019684425679   1.0
I15   I   0.278985174147209   0.163273672301756   0.081519968232534   1.0
I16   I   0.784616770914170   0.084639476846533   0.028078935089368   1.0
N17   N   0.572646837257849   0.666890799648350   0.609063369071592   1.0
Sn18   Sn   0.041662798269421   0.654299712107985   0.064363343544272   1.0




# HOIP entry ID:                    0886
# Khazana ID:                       2736
# Organic cation source:            A. Mancini et al., J. Solid State Chem. 240, 55 (2016)
# Label:                            Trimethylammonium Tin Iodide
# Material class:                   Hybrid organic-inorganic perovskite ( MC_ino )
# Geometry class:                   Bulk crystalline materials ( GC_cry )
# Organic cation chemical formula:  (CH3)3NH
# Number of atom types:             5
# Total number of atoms:            18
# Atom types:                       C H N  Sn I
# Number of each atom:              3 10 1  1 3
# Bandgap, HSE06 (eV):              2.8342
# Bandgap, GGA (eV):                2.1005
# Kpoint for VBM:                   -0.375, -0.1875, 0.4167
# Kpoint for CBM:                   0.5, 0, 0.5
# Dielectric constant, electronic:  4.3319
# Dielectric constant, ionic:       14.2757
# Dielectric constant, total:       18.6075
# Refractive index:                 2.0813
# Atomization energy (eV/atom):     -4.2837
# Relative energy1 (eV/atom):       0.0695
# Relative energy2 (eV/atom):       0.1763
# Volume of the unit cell (A^3):    296.35
# Density (g/cm^3):                 3.1354
# Tool:                             VASP
# Pseudopotential:                  PAW
# Note:                             ENCUT=400eV, k-spacing_relax=0.20/Angstrom, k-spacing_bandgap=0.15/Angstrom
# Created by:                       C.Kim, T.D.Huan, S.Krishnan, R. Ramprasad