data_1
_audit_creation_method   'Generated by vasp2cif'
_cell_length_a    6.64003133804
_cell_length_b    4.99319827676
_cell_length_c    9.13261123941
_cell_angle_alpha    92.5120483612
_cell_angle_beta    83.5935865395
_cell_angle_gamma    81.7892405353

_symmetry_space_group_name_H-M    'P 1'
loop_
_atom_site_label
_atom_site_type_symbol
_atom_site_fract_x
_atom_site_fract_y
_atom_site_fract_z
_atom_site_occupancy
C1   C   0.293322902490935   0.523614977193567   0.477206807914200   1.0
C2   C   0.569225053802967   0.807943468917586   0.501410811835740   1.0
C3   C   0.531996769057187   0.444110877235886   0.673255361214068   1.0
H4   H   0.204591304832924   0.687533146638920   0.426307639435038   1.0
H5   H   0.484185365314531   0.966615924319974   0.445105795746756   1.0
H6   H   0.423549512178063   0.324263037317415   0.727421613116583   1.0
H7   H   0.599491969738949   0.554132255813627   0.756093891728952   1.0
H8   H   0.657896320654615   0.890362560296872   0.581278943453825   1.0
H9   H   0.316186390776252   0.783099049784695   0.655285460611381   1.0
H10   H   0.651256270487082   0.318488493632188   0.598962317392782   1.0
H11   H   0.397266371052254   0.396501675950049   0.392545893528087   1.0
H12   H   0.669805594444796   0.668911804241290   0.420626986869230   1.0
H13   H   0.191697792435583   0.405920102099351   0.540045524087262   1.0
I14   I   0.511133167682502   0.774519892395020   0.068555085062783   1.0
I15   I   0.947334511242943   0.156056813408163   0.292341455014615   1.0
I16   I   0.005686689550366   0.085855294633163   0.792433993176971   1.0
N17   N   0.419415173188384   0.648951798257961   0.582585570835434   1.0
Sn18   Sn   0.966478841069652   0.668778827864315   0.052206848976361   1.0




# HOIP entry ID:                    0887
# Khazana ID:                       2737
# Organic cation source:            A. Mancini et al., J. Solid State Chem. 240, 55 (2016)
# Label:                            Trimethylammonium Tin Iodide
# Material class:                   Hybrid organic-inorganic perovskite ( MC_ino )
# Geometry class:                   Bulk crystalline materials ( GC_cry )
# Organic cation chemical formula:  (CH3)3NH
# Number of atom types:             5
# Total number of atoms:            18
# Atom types:                       C H N  Sn I
# Number of each atom:              3 10 1  1 3
# Bandgap, HSE06 (eV):              2.9787
# Bandgap, GGA (eV):                2.1709
# Kpoint for VBM:                   0.25, 0.0625, 0.375
# Kpoint for CBM:                   0.5, 0, 0.5
# Dielectric constant, electronic:  4.2194
# Dielectric constant, ionic:       9.2548
# Dielectric constant, total:       13.4742
# Refractive index:                 2.0541
# Atomization energy (eV/atom):     -4.284
# Relative energy1 (eV/atom):       0.0691
# Relative energy2 (eV/atom):       0.176
# Volume of the unit cell (A^3):    297.27
# Density (g/cm^3):                 3.1257
# Tool:                             VASP
# Pseudopotential:                  PAW
# Note:                             ENCUT=400eV, k-spacing_relax=0.20/Angstrom, k-spacing_bandgap=0.15/Angstrom
# Created by:                       C.Kim, T.D.Huan, S.Krishnan, R. Ramprasad