data_1
_audit_creation_method   'Generated by vasp2cif'
_cell_length_a    6.5442353581
_cell_length_b    4.86981695322
_cell_length_c    9.43211395747
_cell_angle_alpha    93.8996291738
_cell_angle_beta    83.8041222258
_cell_angle_gamma    84.0446119356

_symmetry_space_group_name_H-M    'P 1'
loop_
_atom_site_label
_atom_site_type_symbol
_atom_site_fract_x
_atom_site_fract_y
_atom_site_fract_z
_atom_site_occupancy
C1   C   0.320484303341679   0.567391594335255   0.490114398136839   1.0
C2   C   0.616693998773009   0.850424786116427   0.495166188028804   1.0
C3   C   0.558718124767275   0.526481910579243   0.683171519249491   1.0
H4   H   0.238256520617000   0.722233939101763   0.432411554900135   1.0
H5   H   0.539363229783511   0.995328444468562   0.430020981216039   1.0
H6   H   0.441999387959932   0.418886284966540   0.741342902507256   1.0
H7   H   0.631181043352541   0.654065020327664   0.758205584913867   1.0
H8   H   0.710123859084355   0.952540607791938   0.566960586646282   1.0
H9   H   0.356939240546573   0.865690767020368   0.648659094008615   1.0
H10   H   0.675518673784133   0.381837316675622   0.618344046754451   1.0
H11   H   0.419642157908790   0.419534156430281   0.413982827685054   1.0
H12   H   0.713202136598163   0.688244227905692   0.425798242862989   1.0
H13   H   0.211767680882993   0.464611261214721   0.558179457564144   1.0
I14   I   0.541647735221765   0.729866421536165   0.083562657733182   1.0
I15   I   0.996303155804398   0.182799134849972   0.287980720697064   1.0
I16   I   0.026857638250682   0.105620246974617   0.796299108422609   1.0
N17   N   0.455676400101559   0.714246104063136   0.584192539209646   1.0
Sn18   Sn   0.002274713221539   0.641267775642135   0.052527589464063   1.0




# HOIP entry ID:                    0888
# Khazana ID:                       2738
# Organic cation source:            A. Mancini et al., J. Solid State Chem. 240, 55 (2016)
# Label:                            Trimethylammonium Tin Iodide
# Material class:                   Hybrid organic-inorganic perovskite ( MC_ino )
# Geometry class:                   Bulk crystalline materials ( GC_cry )
# Organic cation chemical formula:  (CH3)3NH
# Number of atom types:             5
# Total number of atoms:            18
# Atom types:                       C H N  Sn I
# Number of each atom:              3 10 1  1 3
# Bandgap, HSE06 (eV):              2.8568
# Bandgap, GGA (eV):                2.1482
# Kpoint for VBM:                   0.5, 0.125, 0.5
# Kpoint for CBM:                   0.5, 0, 0.5
# Dielectric constant, electronic:  4.3449
# Dielectric constant, ionic:       13.7603
# Dielectric constant, total:       18.1052
# Refractive index:                 2.0844
# Atomization energy (eV/atom):     -4.2836
# Relative energy1 (eV/atom):       0.0696
# Relative energy2 (eV/atom):       0.1764
# Volume of the unit cell (A^3):    296.27
# Density (g/cm^3):                 3.1362
# Tool:                             VASP
# Pseudopotential:                  PAW
# Note:                             ENCUT=400eV, k-spacing_relax=0.20/Angstrom, k-spacing_bandgap=0.15/Angstrom
# Created by:                       C.Kim, T.D.Huan, S.Krishnan, R. Ramprasad