data_1
_audit_creation_method   'Generated by vasp2cif'
_cell_length_a    7.04698669137
_cell_length_b    4.90156085181
_cell_length_c    8.71158782975
_cell_angle_alpha    90.4609318277
_cell_angle_beta    94.8166477868
_cell_angle_gamma    75.2686390504

_symmetry_space_group_name_H-M    'P 1'
loop_
_atom_site_label
_atom_site_type_symbol
_atom_site_fract_x
_atom_site_fract_y
_atom_site_fract_z
_atom_site_occupancy
C1   C   0.520723589641946   0.874809190027044   0.414607268921934   1.0
C2   C   0.431845430646163   0.911864631187278   0.689091730018276   1.0
C3   C   0.287831354111546   0.613858480960673   0.504627400016453   1.0
H4   H   0.573995965553259   0.063292414866901   0.433126728136529   1.0
H5   H   0.311649180941167   0.916460334060112   0.760145972172261   1.0
H6   H   0.241398078511693   0.591828273923511   0.383730544828595   1.0
H7   H   0.165322502698096   0.632228785294750   0.576132947355269   1.0
H8   H   0.555865181797913   0.731857575625838   0.719787865268842   1.0
H9   H   0.241427375286626   0.043511986729143   0.489354731286589   1.0
H10   H   0.411152839895251   0.438673094267330   0.543734637115350   1.0
H11   H   0.640758586105328   0.687308027549420   0.441688930209175   1.0
H12   H   0.478476444819066   0.106550069392327   0.700711071529724   1.0
H13   H   0.457817257572614   0.869239738006115   0.296263196236765   1.0
I14   I   0.927194902206239   0.199728764762583   0.266041493569759   1.0
I15   I   0.891689056386234   0.216602401352006   0.737590398425475   1.0
I16   I   0.365352070632916   0.466116258999477   0.032231727075676   1.0
N17   N   0.361602518176248   0.877280203610425   0.522407033687792   1.0
Sn18   Sn   0.929587665017785   0.649469769385064   0.006846324145684   1.0




# HOIP entry ID:                    0889
# Khazana ID:                       2739
# Organic cation source:            A. Mancini et al., J. Solid State Chem. 240, 55 (2016)
# Label:                            Trimethylammonium Tin Iodide
# Material class:                   Hybrid organic-inorganic perovskite ( MC_ino )
# Geometry class:                   Bulk crystalline materials ( GC_cry )
# Organic cation chemical formula:  (CH3)3NH
# Number of atom types:             5
# Total number of atoms:            18
# Atom types:                       C H N  Sn I
# Number of each atom:              3 10 1  1 3
# Bandgap, HSE06 (eV):              3.0612
# Bandgap, GGA (eV):                2.2657
# Kpoint for VBM:                   0, 0.125, 0.5
# Kpoint for CBM:                   0.5, 0, 0.5
# Dielectric constant, electronic:  4.1669
# Dielectric constant, ionic:       6.5269
# Dielectric constant, total:       10.6937
# Refractive index:                 2.0413
# Atomization energy (eV/atom):     -4.2836
# Relative energy1 (eV/atom):       0.0695
# Relative energy2 (eV/atom):       0.1764
# Volume of the unit cell (A^3):    289.96
# Density (g/cm^3):                 3.2045
# Tool:                             VASP
# Pseudopotential:                  PAW
# Note:                             ENCUT=400eV, k-spacing_relax=0.20/Angstrom, k-spacing_bandgap=0.15/Angstrom
# Created by:                       C.Kim, T.D.Huan, S.Krishnan, R. Ramprasad