data_1
_audit_creation_method   'Generated by vasp2cif'
_cell_length_a    6.69284448777
_cell_length_b    6.48119480704
_cell_length_c    6.50146925644
_cell_angle_alpha    90.0266228362
_cell_angle_beta    89.4613917906
_cell_angle_gamma    89.2824664721

_symmetry_space_group_name_H-M    'P 1'
loop_
_atom_site_label
_atom_site_type_symbol
_atom_site_fract_x
_atom_site_fract_y
_atom_site_fract_z
_atom_site_occupancy
I1   I   0.011495686062069   0.987587332184859   0.560520294668478   1.0
I2   I   0.526273349628845   0.061794296417496   0.061591912593073   1.0
I3   I   0.025888513832925   0.515832303223426   0.060739326151008   1.0
H4   H   0.383621328711889   0.824283113910106   0.566895372771519   1.0
H5   H   0.660343317432911   0.573553982814644   0.311405040810158   1.0
H6   H   0.634993911047097   0.836928009348391   0.559521086770545   1.0
H7   H   0.355021548975167   0.326105713969994   0.565522909247370   1.0
H8   H   0.671143624143319   0.571061085479819   0.801918879999334   1.0
H9   H   0.405772793052236   0.586224690837845   0.841824530577910   1.0
H10   H   0.393568325967870   0.589183459546533   0.289482806507188   1.0
H11   H   0.618899682761381   0.282827439870161   0.556788355599146   1.0
C12   C   0.525532435535091   0.567565658193580   0.728998951267201   1.0
C13   C   0.518225125204175   0.569322449971523   0.393907997094566   1.0
C14   C   0.500693628453035   0.399978851451067   0.561258719812152   1.0
Sn15   Sn   0.981705944652688   0.051155812705410   0.058435345096022   1.0
N16   N   0.514860784539302   0.738645800075219   0.562598471034342   1.0




# HOIP entry ID:                    0890
# Khazana ID:                       2740
# Organic cation source:            B. Zhou et al., Angew. Chem. Int. Ed. 50, 11441 (2011)
# Label:                            Azetidinium Tin Iodide
# Material class:                   Hybrid organic-inorganic perovskite ( MC_ino )
# Geometry class:                   Bulk crystalline materials ( GC_cry )
# Organic cation chemical formula:  C3H6N2
# Number of atom types:             5
# Total number of atoms:            16
# Atom types:                       C H N  Sn I
# Number of each atom:              3 8 1  1 3
# Bandgap, HSE06 (eV):              1.6719
# Bandgap, GGA (eV):                1.0994
# Kpoint for VBM:                   0.5, 0.5, 0.5
# Kpoint for CBM:                   0.5, 0.5, 0.5
# Dielectric constant, electronic:  5.41
# Dielectric constant, ionic:       18.413
# Dielectric constant, total:       23.8231
# Refractive index:                 2.326
# Atomization energy (eV/atom):     -4.3359
# Relative energy1 (eV/atom):       0.1076
# Relative energy2 (eV/atom):       0.2278
# Volume of the unit cell (A^3):    281.98
# Density (g/cm^3):                 3.2833
# Tool:                             VASP
# Pseudopotential:                  PAW
# Note:                             ENCUT=400eV, k-spacing_relax=0.20/Angstrom, k-spacing_bandgap=0.15/Angstrom
# Created by:                       C.Kim, T.D.Huan, S.Krishnan, R. Ramprasad