data_1
_audit_creation_method   'Generated by vasp2cif'
_cell_length_a    6.51954962262
_cell_length_b    6.50457093484
_cell_length_c    6.61655911238
_cell_angle_alpha    93.5053396414
_cell_angle_beta    85.8244364748
_cell_angle_gamma    90.8442205656

_symmetry_space_group_name_H-M    'P 1'
loop_
_atom_site_label
_atom_site_type_symbol
_atom_site_fract_x
_atom_site_fract_y
_atom_site_fract_z
_atom_site_occupancy
I1   I   0.467296739167551   0.061750804326323   0.970884884701931   1.0
I2   I   0.974618528245436   0.108532443431784   0.459628717708824   1.0
I3   I   0.970521186386243   0.595718869622431   0.959107900995825   1.0
H4   H   0.488431882673979   0.869721191746351   0.325370489453022   1.0
H5   H   0.707692230209965   0.679093899653211   0.627598634244883   1.0
H6   H   0.422175736906475   0.881800920916696   0.576029105604903   1.0
H7   H   0.499620009872245   0.314930037709019   0.420293111275470   1.0
H8   H   0.163061497638218   0.628468167041049   0.511318783533447   1.0
H9   H   0.288234658528225   0.570980128471639   0.264299386182159   1.0
H10   H   0.738110096822197   0.612627901750088   0.359867423270401   1.0
H11   H   0.423266797039503   0.421823470982560   0.668896716817997   1.0
C12   C   0.309409745792458   0.599583177399460   0.425336805812989   1.0
C13   C   0.629953152812888   0.629568693623142   0.492979060302261   1.0
C14   C   0.464847791847262   0.456674850862456   0.511809688049880   1.0
Sn15   Sn   0.946429637901041   0.130202929012448   0.923475468086814   1.0
N16   N   0.461280308156304   0.783822513451426   0.451033823959179   1.0




# HOIP entry ID:                    0891
# Khazana ID:                       2741
# Organic cation source:            B. Zhou et al., Angew. Chem. Int. Ed. 50, 11441 (2011)
# Label:                            Azetidinium Tin Iodide
# Material class:                   Hybrid organic-inorganic perovskite ( MC_ino )
# Geometry class:                   Bulk crystalline materials ( GC_cry )
# Organic cation chemical formula:  C3H6N2
# Number of atom types:             5
# Total number of atoms:            16
# Atom types:                       C H N  Sn I
# Number of each atom:              3 8 1  1 3
# Bandgap, HSE06 (eV):              1.7441
# Bandgap, GGA (eV):                1.1918
# Kpoint for VBM:                   0.5, 0.5, 0.5
# Kpoint for CBM:                   0.5, 0.5, 0.4474
# Dielectric constant, electronic:  5.3765
# Dielectric constant, ionic:       8.6928
# Dielectric constant, total:       14.0692
# Refractive index:                 2.3187
# Atomization energy (eV/atom):     -4.3355
# Relative energy1 (eV/atom):       0.1079
# Relative energy2 (eV/atom):       0.2281
# Volume of the unit cell (A^3):    279.3
# Density (g/cm^3):                 3.3148
# Tool:                             VASP
# Pseudopotential:                  PAW
# Note:                             ENCUT=400eV, k-spacing_relax=0.20/Angstrom, k-spacing_bandgap=0.15/Angstrom
# Created by:                       C.Kim, T.D.Huan, S.Krishnan, R. Ramprasad