data_1
_audit_creation_method   'Generated by vasp2cif'
_cell_length_a    6.54700932438
_cell_length_b    6.51933125629
_cell_length_c    6.56695598734
_cell_angle_alpha    86.9764537066
_cell_angle_beta    83.8012514843
_cell_angle_gamma    93.0682984436

_symmetry_space_group_name_H-M    'P 1'
loop_
_atom_site_label
_atom_site_type_symbol
_atom_site_fract_x
_atom_site_fract_y
_atom_site_fract_z
_atom_site_occupancy
I1   I   0.009504956967625   0.054126432384805   0.515331743527241   1.0
I2   I   0.547743033147434   0.055629252694281   0.050066497170953   1.0
I3   I   0.054202040352656   0.567910814121142   0.011367892277590   1.0
H4   H   0.377551667954357   0.800521418339642   0.694201453135960   1.0
H5   H   0.400359413695156   0.644579801559615   0.291286550854657   1.0
H6   H   0.569559546892371   0.861293279140078   0.506983904201071   1.0
H7   H   0.488532123664250   0.276526243354993   0.562108948358663   1.0
H8   H   0.773309183263436   0.627402017372766   0.668062268263732   1.0
H9   H   0.548598212852909   0.524860832007271   0.829204016985678   1.0
H10   H   0.232775770854872   0.539452031075378   0.510230210976580   1.0
H11   H   0.675492167888251   0.416886805400459   0.382847731514467   1.0
C12   C   0.613079953648679   0.572750932222093   0.673061859295494   1.0
C13   C   0.391345248141945   0.582936555435587   0.449088540241561   1.0
C14   C   0.551816276975444   0.429507786958077   0.505914744952449   1.0
Sn15   Sn   0.020831413766039   0.099144823842892   0.044267392042244   1.0
N16   N   0.481968989934543   0.741500974090940   0.587776246201635   1.0




# HOIP entry ID:                    0893
# Khazana ID:                       2743
# Organic cation source:            B. Zhou et al., Angew. Chem. Int. Ed. 50, 11441 (2011)
# Label:                            Azetidinium Tin Iodide
# Material class:                   Hybrid organic-inorganic perovskite ( MC_ino )
# Geometry class:                   Bulk crystalline materials ( GC_cry )
# Organic cation chemical formula:  C3H6N2
# Number of atom types:             5
# Total number of atoms:            16
# Atom types:                       C H N  Sn I
# Number of each atom:              3 8 1  1 3
# Bandgap, HSE06 (eV):              1.5849
# Bandgap, GGA (eV):                1.0252
# Kpoint for VBM:                   0.5, 0.5, 0.5
# Kpoint for CBM:                   0.5, 0.5, 0.5
# Dielectric constant, electronic:  5.4981
# Dielectric constant, ionic:       16.6759
# Dielectric constant, total:       22.174
# Refractive index:                 2.3448
# Atomization energy (eV/atom):     -4.3331
# Relative energy1 (eV/atom):       0.1104
# Relative energy2 (eV/atom):       0.2306
# Volume of the unit cell (A^3):    277.77
# Density (g/cm^3):                 3.333
# Tool:                             VASP
# Pseudopotential:                  PAW
# Note:                             ENCUT=400eV, k-spacing_relax=0.20/Angstrom, k-spacing_bandgap=0.15/Angstrom
# Created by:                       C.Kim, T.D.Huan, S.Krishnan, R. Ramprasad