data_1
_audit_creation_method   'Generated by vasp2cif'
_cell_length_a    8.86673993163
_cell_length_b    6.70600447925
_cell_length_c    4.78184650142
_cell_angle_alpha    91.6208006873
_cell_angle_beta    81.9298328725
_cell_angle_gamma    89.8827497628

_symmetry_space_group_name_H-M    'P 1'
loop_
_atom_site_label
_atom_site_type_symbol
_atom_site_fract_x
_atom_site_fract_y
_atom_site_fract_z
_atom_site_occupancy
I1   I   0.762243376712284   0.658029104911845   0.238887941432328   1.0
I2   I   0.016849293515111   0.132770908127622   0.707607395712133   1.0
I3   I   0.289463236691552   0.656076803874026   0.112459372996973   1.0
H4   H   0.594163925540748   0.020672915937684   0.057887375317285   1.0
H5   H   0.330295206983823   0.278387120236889   0.012651035115897   1.0
H6   H   0.334342707176557   0.025712492548518   0.996254991390321   1.0
H7   H   0.394181152447282   0.024802824605238   0.507590187751196   1.0
H8   H   0.386011744172273   0.293084343647243   0.526120065290588   1.0
H9   H   0.663279218566904   0.302675375134936   0.567057552098799   1.0
H10   H   0.671514440357683   0.037970276067277   0.542279337144324   1.0
H11   H   0.588781607142042   0.289565628628628   0.081720412278990   1.0
C12   C   0.434329509835957   0.159780595200133   0.605294264313623   1.0
C13   C   0.562732645310254   0.157004532573388   0.961269529105620   1.0
C14   C   0.605987161072129   0.165897889300765   0.637534820691488   1.0
Sn15   Sn   0.010191106897209   0.680202665267570   0.676514502597195   1.0
N16   N   0.391143667578146   0.153866523938319   0.927921216763147   1.0




# HOIP entry ID:                    0894
# Khazana ID:                       2744
# Organic cation source:            B. Zhou et al., Angew. Chem. Int. Ed. 50, 11441 (2011)
# Label:                            Azetidinium Tin Iodide
# Material class:                   Hybrid organic-inorganic perovskite ( MC_ino )
# Geometry class:                   Bulk crystalline materials ( GC_cry )
# Organic cation chemical formula:  C3H6N2
# Number of atom types:             5
# Total number of atoms:            16
# Atom types:                       C H N  Sn I
# Number of each atom:              3 8 1  1 3
# Bandgap, HSE06 (eV):              2.6138
# Bandgap, GGA (eV):                1.8696
# Kpoint for VBM:                   0.5, 0.5, 0.1579
# Kpoint for CBM:                   0.5, 0.5, 0.5
# Dielectric constant, electronic:  4.5902
# Dielectric constant, ionic:       13.0055
# Dielectric constant, total:       17.5957
# Refractive index:                 2.1425
# Atomization energy (eV/atom):     -4.3287
# Relative energy1 (eV/atom):       0.1148
# Relative energy2 (eV/atom):       0.235
# Volume of the unit cell (A^3):    281.4
# Density (g/cm^3):                 3.29
# Tool:                             VASP
# Pseudopotential:                  PAW
# Note:                             ENCUT=400eV, k-spacing_relax=0.20/Angstrom, k-spacing_bandgap=0.15/Angstrom
# Created by:                       C.Kim, T.D.Huan, S.Krishnan, R. Ramprasad