data_1
_audit_creation_method   'Generated by vasp2cif'
_cell_length_a    8.89201526395
_cell_length_b    6.58813673173
_cell_length_c    4.79000021645
_cell_angle_alpha    92.0494221751
_cell_angle_beta    84.1396742748
_cell_angle_gamma    86.4405073795

_symmetry_space_group_name_H-M    'P 1'
loop_
_atom_site_label
_atom_site_type_symbol
_atom_site_fract_x
_atom_site_fract_y
_atom_site_fract_z
_atom_site_occupancy
I1   I   0.216686402483880   0.638121434947600   0.768294138291374   1.0
I2   I   0.966102941170440   0.146199916694577   0.296981850651967   1.0
I3   I   0.695758725931988   0.692005700309075   0.869631974982006   1.0
H4   H   0.407771712255609   0.012337728686610   0.948941396534664   1.0
H5   H   0.601101637270403   0.344326501150420   0.032138009293441   1.0
H6   H   0.653599462185461   0.094825159054231   0.049260919381325   1.0
H7   H   0.629863291444522   0.140822796119934   0.537693653267084   1.0
H8   H   0.516594161714501   0.374591176837043   0.514308241174426   1.0
H9   H   0.288440910732717   0.166622658213974   0.529852940463620   1.0
H10   H   0.407523142412927   0.939607709419896   0.450432818509725   1.0
H11   H   0.338307647379452   0.272189409394905   0.035696333390426   1.0
C12   C   0.537050923201100   0.215737558990320   0.440561104060450   1.0
C13   C   0.408276259507979   0.142366774942161   0.094876277194594   1.0
C14   C   0.392067781188444   0.101256744634327   0.411268571548909   1.0
Sn15   Sn   0.969804791605945   0.681273812224006   0.303742741839848   1.0
N16   N   0.571490209514593   0.208514918380871   0.118609029416184   1.0




# HOIP entry ID:                    0895
# Khazana ID:                       2745
# Organic cation source:            B. Zhou et al., Angew. Chem. Int. Ed. 50, 11441 (2011)
# Label:                            Azetidinium Tin Iodide
# Material class:                   Hybrid organic-inorganic perovskite ( MC_ino )
# Geometry class:                   Bulk crystalline materials ( GC_cry )
# Organic cation chemical formula:  C3H6N2
# Number of atom types:             5
# Total number of atoms:            16
# Atom types:                       C H N  Sn I
# Number of each atom:              3 8 1  1 3
# Bandgap, HSE06 (eV):              2.4545
# Bandgap, GGA (eV):                1.7052
# Kpoint for VBM:                   0.5, 0.5, 0.1842
# Kpoint for CBM:                   0.5, 0.5, 0.5
# Dielectric constant, electronic:  4.761
# Dielectric constant, ionic:       14.2359
# Dielectric constant, total:       18.9968
# Refractive index:                 2.182
# Atomization energy (eV/atom):     -4.329
# Relative energy1 (eV/atom):       0.1145
# Relative energy2 (eV/atom):       0.2347
# Volume of the unit cell (A^3):    278.35
# Density (g/cm^3):                 3.3261
# Tool:                             VASP
# Pseudopotential:                  PAW
# Note:                             ENCUT=400eV, k-spacing_relax=0.20/Angstrom, k-spacing_bandgap=0.15/Angstrom
# Created by:                       C.Kim, T.D.Huan, S.Krishnan, R. Ramprasad