data_1
_audit_creation_method   'Generated by vasp2cif'
_cell_length_a    8.94353222574
_cell_length_b    6.57497554535
_cell_length_c    4.78519768496
_cell_angle_alpha    87.2697623855
_cell_angle_beta    100.601840487
_cell_angle_gamma    87.8353048583

_symmetry_space_group_name_H-M    'P 1'
loop_
_atom_site_label
_atom_site_type_symbol
_atom_site_fract_x
_atom_site_fract_y
_atom_site_fract_z
_atom_site_occupancy
I1   I   0.740991235143269   0.706604463200762   0.143494629546112   1.0
I2   I   0.026319196502349   0.162244657391213   0.692907654312584   1.0
I3   I   0.259627514785883   0.652745588062594   0.316286133489662   1.0
H4   H   0.630745104849609   0.185880229699144   0.173376136650454   1.0
H5   H   0.317193454292962   0.103386443796623   0.897783247465334   1.0
H6   H   0.465884450115531   0.931924417435866   0.993670972478995   1.0
H7   H   0.523625482449148   0.964885664562075   0.539095085643723   1.0
H8   H   0.369704799557617   0.155506492109787   0.448124676387920   1.0
H9   H   0.552557229195479   0.423637750836214   0.601754967952651   1.0
H10   H   0.702349381679070   0.233331087009311   0.705567793018751   1.0
H11   H   0.474100509570292   0.371605042207321   0.069942940447923   1.0
C12   C   0.472683650482281   0.105436466791716   0.599297765997427   1.0
C13   C   0.539568165837444   0.245983575414940   0.003341650866183   1.0
C14   C   0.583124363684909   0.273304913708259   0.706515727704165   1.0
Sn15   Sn   0.000188926175738   0.696507123330662   0.745185265891976   1.0
N16   N   0.432026535678354   0.073996084443550   0.896915352146181   1.0




# HOIP entry ID:                    0896
# Khazana ID:                       2746
# Organic cation source:            B. Zhou et al., Angew. Chem. Int. Ed. 50, 11441 (2011)
# Label:                            Azetidinium Tin Iodide
# Material class:                   Hybrid organic-inorganic perovskite ( MC_ino )
# Geometry class:                   Bulk crystalline materials ( GC_cry )
# Organic cation chemical formula:  C3H6N2
# Number of atom types:             5
# Total number of atoms:            16
# Atom types:                       C H N  Sn I
# Number of each atom:              3 8 1  1 3
# Bandgap, HSE06 (eV):              2.583
# Bandgap, GGA (eV):                1.8472
# Kpoint for VBM:                   0.5, 0.5, 0.1842
# Kpoint for CBM:                   0.5, 0.5, 0.5
# Dielectric constant, electronic:  4.7816
# Dielectric constant, ionic:       14.7868
# Dielectric constant, total:       19.5684
# Refractive index:                 2.1867
# Atomization energy (eV/atom):     -4.3297
# Relative energy1 (eV/atom):       0.1138
# Relative energy2 (eV/atom):       0.234
# Volume of the unit cell (A^3):    275.96
# Density (g/cm^3):                 3.3549
# Tool:                             VASP
# Pseudopotential:                  PAW
# Note:                             ENCUT=400eV, k-spacing_relax=0.20/Angstrom, k-spacing_bandgap=0.15/Angstrom
# Created by:                       C.Kim, T.D.Huan, S.Krishnan, R. Ramprasad