data_1
_audit_creation_method   'Generated by vasp2cif'
_cell_length_a    6.45306185903
_cell_length_b    4.61583357755
_cell_length_c    9.31855743228
_cell_angle_alpha    88.1017478739
_cell_angle_beta    93.2594113188
_cell_angle_gamma    96.8713089143

_symmetry_space_group_name_H-M    'P 1'
loop_
_atom_site_label
_atom_site_type_symbol
_atom_site_fract_x
_atom_site_fract_y
_atom_site_fract_z
_atom_site_occupancy
I1   I   0.822833228223901   0.802815363276713   0.794461786392319   1.0
I2   I   0.385345544596117   0.166824572915209   0.072359298398656   1.0
I3   I   0.886362706020343   0.780377832253420   0.307869989736870   1.0
H4   H   0.036215221051255   0.228037164140426   0.553814637952597   1.0
H5   H   0.242518969238897   0.222442122200971   0.354933246920556   1.0
H6   H   0.346291882292501   0.562621896807768   0.381927652831120   1.0
H7   H   0.540227903408651   0.048520880749203   0.470853023237090   1.0
H8   H   0.628353059120743   0.408778173723359   0.528779546274699   1.0
H9   H   0.431424890438346   0.313526631250372   0.748785998646757   1.0
H10   H   0.312036136544085   0.973596830144072   0.685703561257584   1.0
H11   H   0.172180192647199   0.573187119179285   0.602806939092580   1.0
C12   C   0.495240246368815   0.240190219019035   0.520789221388938   1.0
C13   C   0.188987406331252   0.353293649832321   0.570775330398840   1.0
C14   C   0.361416996057629   0.199691899420643   0.654401851067468   1.0
Sn15   Sn   0.852496209953309   0.296838574832576   0.041769116680544   1.0
N16   N   0.312419407707120   0.362737070254575   0.432478799723395   1.0




# HOIP entry ID:                    0897
# Khazana ID:                       2747
# Organic cation source:            B. Zhou et al., Angew. Chem. Int. Ed. 50, 11441 (2011)
# Label:                            Azetidinium Tin Iodide
# Material class:                   Hybrid organic-inorganic perovskite ( MC_ino )
# Geometry class:                   Bulk crystalline materials ( GC_cry )
# Organic cation chemical formula:  C3H6N2
# Number of atom types:             5
# Total number of atoms:            16
# Atom types:                       C H N  Sn I
# Number of each atom:              3 8 1  1 3
# Bandgap, HSE06 (eV):              2.8922
# Bandgap, GGA (eV):                2.2288
# Kpoint for VBM:                   0.5, 0.1667, 0.5
# Kpoint for CBM:                   -0.4167, 0, 0.375
# Dielectric constant, electronic:  4.6879
# Dielectric constant, ionic:       10.1842
# Dielectric constant, total:       14.8722
# Refractive index:                 2.1652
# Atomization energy (eV/atom):     -4.3223
# Relative energy1 (eV/atom):       0.1212
# Relative energy2 (eV/atom):       0.2414
# Volume of the unit cell (A^3):    275.03
# Density (g/cm^3):                 3.3662
# Tool:                             VASP
# Pseudopotential:                  PAW
# Note:                             ENCUT=400eV, k-spacing_relax=0.20/Angstrom, k-spacing_bandgap=0.15/Angstrom
# Created by:                       C.Kim, T.D.Huan, S.Krishnan, R. Ramprasad