data_1
_audit_creation_method   'Generated by vasp2cif'
_cell_length_a    6.95043042199
_cell_length_b    4.737081785
_cell_length_c    9.40886139697
_cell_angle_alpha    108.624319843
_cell_angle_beta    98.2933792183
_cell_angle_gamma    73.7757932709

_symmetry_space_group_name_H-M    'P 1'
loop_
_atom_site_label
_atom_site_type_symbol
_atom_site_fract_x
_atom_site_fract_y
_atom_site_fract_z
_atom_site_occupancy
I1   I   0.176121798815146   0.990481883206435   0.206203141647038   1.0
I2   I   0.557911074111090   0.159094518248196   0.900142248112282   1.0
I3   I   0.070930730971391   0.704081610490846   0.689420941114030   1.0
H4   H   0.701020526318189   0.976415121737467   0.425239579315239   1.0
H5   H   0.539446214009153   0.359133019160005   0.641562598081016   1.0
H6   H   0.696707442633979   0.576017081184126   0.653731449632211   1.0
H7   H   0.343161677761799   0.526243053902689   0.438712875724221   1.0
H8   H   0.463248506059365   0.834870050042269   0.499984951366237   1.0
H9   H   0.742445923076026   0.508416843389774   0.321690799196105   1.0
H10   H   0.580224586243538   0.262576244461378   0.236444025712657   1.0
H11   H   0.901149415810629   0.165843499662287   0.481467385441775   1.0
C12   C   0.486844241132054   0.586053854055024   0.461224150651503   1.0
C13   C   0.741585796121676   0.193541041748858   0.451429283545764   1.0
C14   C   0.642551356429962   0.387096957175615   0.343141284209494   1.0
Sn15   Sn   0.118223342352344   0.364945055279335   0.954286032584463   1.0
N16   N   0.613887368153549   0.434860166255412   0.579089253665487   1.0




# HOIP entry ID:                    0898
# Khazana ID:                       2748
# Organic cation source:            B. Zhou et al., Angew. Chem. Int. Ed. 50, 11441 (2011)
# Label:                            Azetidinium Tin Iodide
# Material class:                   Hybrid organic-inorganic perovskite ( MC_ino )
# Geometry class:                   Bulk crystalline materials ( GC_cry )
# Organic cation chemical formula:  C3H6N2
# Number of atom types:             5
# Total number of atoms:            16
# Atom types:                       C H N  Sn I
# Number of each atom:              3 8 1  1 3
# Bandgap, HSE06 (eV):              3.1817
# Bandgap, GGA (eV):                2.3828
# Kpoint for VBM:                   0.1667, 0.1667, 0.1
# Kpoint for CBM:                   -0.4167, 0, 0.4
# Dielectric constant, electronic:  4.295
# Dielectric constant, ionic:       12.0009
# Dielectric constant, total:       16.2959
# Refractive index:                 2.0724
# Atomization energy (eV/atom):     -4.3235
# Relative energy1 (eV/atom):       0.12
# Relative energy2 (eV/atom):       0.2402
# Volume of the unit cell (A^3):    281.36
# Density (g/cm^3):                 3.2905
# Tool:                             VASP
# Pseudopotential:                  PAW
# Note:                             ENCUT=400eV, k-spacing_relax=0.20/Angstrom, k-spacing_bandgap=0.15/Angstrom
# Created by:                       C.Kim, T.D.Huan, S.Krishnan, R. Ramprasad