data_1
_audit_creation_method   'Generated by vasp2cif'
_cell_length_a    9.07954066677
_cell_length_b    4.74980869709
_cell_length_c    6.92315318456
_cell_angle_alpha    105.736941353
_cell_angle_beta    89.7559519556
_cell_angle_gamma    78.8304706055

_symmetry_space_group_name_H-M    'P 1'
loop_
_atom_site_label
_atom_site_type_symbol
_atom_site_fract_x
_atom_site_fract_y
_atom_site_fract_z
_atom_site_occupancy
I1   I   0.205443146295735   0.771247171329094   0.826644487535489   1.0
I2   I   0.899503301056697   0.249540630322215   0.444859793716390   1.0
I3   I   0.689128813311513   0.002983081978172   0.931960777797251   1.0
H4   H   0.423802645980736   0.546453935753000   0.307309170252502   1.0
H5   H   0.640171172077089   0.710040657808925   0.469257464108345   1.0
H6   H   0.654038041925041   0.911796451944916   0.309409867444970   1.0
H7   H   0.434980957044580   0.078809228710206   0.659900729094275   1.0
H8   H   0.499222594308769   0.324069134751767   0.539905402942260   1.0
H9   H   0.325454151481637   0.176212663612134   0.254727582387382   1.0
H10   H   0.235323983323163   0.021850956595536   0.417505457664113   1.0
H11   H   0.483515074096950   0.671515789163657   0.103763619579787   1.0
C12   C   0.459860858515654   0.115680210634878   0.516056959565176   1.0
C13   C   0.451730308141180   0.733372293794048   0.263378847541212   1.0
C14   C   0.343646026391959   0.036025578019689   0.357372104918966   1.0
Sn15   Sn   0.953871320387201   0.396884488662444   0.885198898296956   1.0
N16   N   0.578517605662064   0.846737726919336   0.392338837154902   1.0




# HOIP entry ID:                    0899
# Khazana ID:                       2749
# Organic cation source:            B. Zhou et al., Angew. Chem. Int. Ed. 50, 11441 (2011)
# Label:                            Azetidinium Tin Iodide
# Material class:                   Hybrid organic-inorganic perovskite ( MC_ino )
# Geometry class:                   Bulk crystalline materials ( GC_cry )
# Organic cation chemical formula:  C3H6N2
# Number of atom types:             5
# Total number of atoms:            16
# Atom types:                       C H N  Sn I
# Number of each atom:              3 8 1  1 3
# Bandgap, HSE06 (eV):              3.1711
# Bandgap, GGA (eV):                2.3846
# Kpoint for VBM:                   -0.25, -0.1667, 0.1667
# Kpoint for CBM:                   0.375, 0, 0.4167
# Dielectric constant, electronic:  4.3004
# Dielectric constant, ionic:       11.5925
# Dielectric constant, total:       15.8929
# Refractive index:                 2.0738
# Atomization energy (eV/atom):     -4.3236
# Relative energy1 (eV/atom):       0.1198
# Relative energy2 (eV/atom):       0.24
# Volume of the unit cell (A^3):    281.42
# Density (g/cm^3):                 3.2898
# Tool:                             VASP
# Pseudopotential:                  PAW
# Note:                             ENCUT=400eV, k-spacing_relax=0.20/Angstrom, k-spacing_bandgap=0.15/Angstrom
# Created by:                       C.Kim, T.D.Huan, S.Krishnan, R. Ramprasad