data_1
_audit_creation_method   'Generated by vasp2cif'
_cell_length_a    8.97907756347
_cell_length_b    4.819180627
_cell_length_c    6.80859381055
_cell_angle_alpha    76.2624065089
_cell_angle_beta    88.9630182772
_cell_angle_gamma    100.934394299

_symmetry_space_group_name_H-M    'P 1'
loop_
_atom_site_label
_atom_site_type_symbol
_atom_site_fract_x
_atom_site_fract_y
_atom_site_fract_z
_atom_site_occupancy
I1   I   0.782362443043119   0.778335603760982   0.173830208794335   1.0
I2   I   0.088055051853968   0.258466016737746   0.558786361234774   1.0
I3   I   0.300846939171817   0.995980418013908   0.067079869344886   1.0
H4   H   0.600177282022094   0.621361527502574   0.638909441346661   1.0
H5   H   0.364344126732526   0.730998537120731   0.496484912805405   1.0
H6   H   0.331240417014156   0.884843317072980   0.684153376530598   1.0
H7   H   0.564011540409105   0.132069065612680   0.341805571369168   1.0
H8   H   0.466376937492587   0.327280099331601   0.476300774926807   1.0
H9   H   0.625671152282873   0.185915575718120   0.780318948516457   1.0
H10   H   0.754489235327862   0.114536667971584   0.604860261442978   1.0
H11   H   0.513412686341377   0.652827284725838   0.871431513951099   1.0
C12   C   0.523342374952514   0.144298013882403   0.490297676626410   1.0
C13   C   0.549088167276151   0.759060372131057   0.713746207692072   1.0
C14   C   0.635805103878905   0.079483519369143   0.657534928291555   1.0
Sn15   Sn   0.034475736508154   0.389808886219295   0.115758460940075   1.0
N16   N   0.415560805692818   0.853435094829339   0.591121486186697   1.0




# HOIP entry ID:                    0901
# Khazana ID:                       2751
# Organic cation source:            B. Zhou et al., Angew. Chem. Int. Ed. 50, 11441 (2011)
# Label:                            Azetidinium Tin Iodide
# Material class:                   Hybrid organic-inorganic perovskite ( MC_ino )
# Geometry class:                   Bulk crystalline materials ( GC_cry )
# Organic cation chemical formula:  C3H6N2
# Number of atom types:             5
# Total number of atoms:            16
# Atom types:                       C H N  Sn I
# Number of each atom:              3 8 1  1 3
# Bandgap, HSE06 (eV):              3.0577
# Bandgap, GGA (eV):                2.2672
# Kpoint for VBM:                   -0.375, 0.1875, 0.25
# Kpoint for CBM:                   0.5, 0, 0.5
# Dielectric constant, electronic:  4.3536
# Dielectric constant, ionic:       17.1903
# Dielectric constant, total:       21.5439
# Refractive index:                 2.0865
# Atomization energy (eV/atom):     -4.3239
# Relative energy1 (eV/atom):       0.1196
# Relative energy2 (eV/atom):       0.2398
# Volume of the unit cell (A^3):    280.38
# Density (g/cm^3):                 3.302
# Tool:                             VASP
# Pseudopotential:                  PAW
# Note:                             ENCUT=400eV, k-spacing_relax=0.20/Angstrom, k-spacing_bandgap=0.15/Angstrom
# Created by:                       C.Kim, T.D.Huan, S.Krishnan, R. Ramprasad