data_1
_audit_creation_method   'Generated by vasp2cif'
_cell_length_a    6.46327030513
_cell_length_b    4.58444043616
_cell_length_c    9.31197690675
_cell_angle_alpha    88.5814805472
_cell_angle_beta    90.022685641
_cell_angle_gamma    83.7050803017

_symmetry_space_group_name_H-M    'P 1'
loop_
_atom_site_label
_atom_site_type_symbol
_atom_site_fract_x
_atom_site_fract_y
_atom_site_fract_z
_atom_site_occupancy
I1   I   0.927462741376203   0.812190942419022   0.776875924052874   1.0
I2   I   0.388421842078849   0.149629762746798   0.054626058937814   1.0
I3   I   0.901002516594687   0.792186221997106   0.291117730620265   1.0
H4   H   0.269093951741119   0.992738670866920   0.499370285775378   1.0
H5   H   0.448593932905048   0.263338608011857   0.327485279199010   1.0
H6   H   0.314710073709641   0.573275185727475   0.375680037366550   1.0
H7   H   0.701097368487098   0.280469985907473   0.512876469500263   1.0
H8   H   0.588750351699169   0.645814971606683   0.544904009219501   1.0
H9   H   0.342285700243501   0.455773870515870   0.722282585015471   1.0
H10   H   0.484944040816948   0.103539288954749   0.711319520018094   1.0
H11   H   0.106254443056862   0.324606512658107   0.528963164402327   1.0
C12   C   0.557636390275995   0.418826152121866   0.536005404694080   1.0
C13   C   0.266267083656366   0.222300290645173   0.526749079328262   1.0
C14   C   0.413832628929740   0.292491063114426   0.649155156016960   1.0
Sn15   Sn   0.917500379640082   0.299742245544650   0.026945480046983   1.0
N16   N   0.396256554788636   0.382506227161862   0.416133815806027   1.0




# HOIP entry ID:                    0902
# Khazana ID:                       2752
# Organic cation source:            B. Zhou et al., Angew. Chem. Int. Ed. 50, 11441 (2011)
# Label:                            Azetidinium Tin Iodide
# Material class:                   Hybrid organic-inorganic perovskite ( MC_ino )
# Geometry class:                   Bulk crystalline materials ( GC_cry )
# Organic cation chemical formula:  C3H6N2
# Number of atom types:             5
# Total number of atoms:            16
# Atom types:                       C H N  Sn I
# Number of each atom:              3 8 1  1 3
# Bandgap, HSE06 (eV):              2.8956
# Bandgap, GGA (eV):                2.2352
# Kpoint for VBM:                   0.5, 0.1667, 0.5
# Kpoint for CBM:                   0.5, 0.0556, 0
# Dielectric constant, electronic:  4.6802
# Dielectric constant, ionic:       8.9249
# Dielectric constant, total:       13.6051
# Refractive index:                 2.1634
# Atomization energy (eV/atom):     -4.3221
# Relative energy1 (eV/atom):       0.1214
# Relative energy2 (eV/atom):       0.2416
# Volume of the unit cell (A^3):    274.17
# Density (g/cm^3):                 3.3768
# Tool:                             VASP
# Pseudopotential:                  PAW
# Note:                             ENCUT=400eV, k-spacing_relax=0.20/Angstrom, k-spacing_bandgap=0.15/Angstrom
# Created by:                       C.Kim, T.D.Huan, S.Krishnan, R. Ramprasad