data_1
_audit_creation_method   'Generated by vasp2cif'
_cell_length_a    8.49177536153
_cell_length_b    6.94332044153
_cell_length_c    4.80341952948
_cell_angle_alpha    89.4078328329
_cell_angle_beta    88.7888428219
_cell_angle_gamma    84.459750415

_symmetry_space_group_name_H-M    'P 1'
loop_
_atom_site_label
_atom_site_type_symbol
_atom_site_fract_x
_atom_site_fract_y
_atom_site_fract_z
_atom_site_occupancy
I1   I   0.172154998819813   0.523439010721155   0.809002455853573   1.0
I2   I   0.867504985909164   0.069545423370762   0.808898247140142   1.0
I3   I   0.645206506348295   0.577209301661000   0.326561080828505   1.0
H4   H   0.425508826919753   0.871666977566342   0.917670435885306   1.0
H5   H   0.416071193731945   0.296758150345795   0.988685061638286   1.0
H6   H   0.580929033251216   0.138421801674724   0.971869716410538   1.0
H7   H   0.551772326639785   0.047311089553070   0.441551771588408   1.0
H8   H   0.413547649416060   0.260556750212992   0.472175125178708   1.0
H9   H   0.191572314013619   0.072121061620017   0.349538658343611   1.0
H10   H   0.319855379136413   0.854251108984222   0.403203955144782   1.0
H11   H   0.261900151768906   0.051716997287308   0.849292057750155   1.0
C12   C   0.443768456343854   0.124990878879053   0.363142521277162   1.0
C13   C   0.354892464000265   0.001040830044630   0.992061958840971   1.0
C14   C   0.308392582332481   0.996918015930028   0.304986640674137   1.0
Sn15   Sn   0.950251388206368   0.748326608719765   0.294135712235828   1.0
N16   N   0.465361743162127   0.160805993429122   0.048904601210040   1.0




# HOIP entry ID:                    0904
# Khazana ID:                       2754
# Organic cation source:            B. Zhou et al., Angew. Chem. Int. Ed. 50, 11441 (2011)
# Label:                            Azetidinium Tin Iodide
# Material class:                   Hybrid organic-inorganic perovskite ( MC_ino )
# Geometry class:                   Bulk crystalline materials ( GC_cry )
# Organic cation chemical formula:  C3H6N2
# Number of atom types:             5
# Total number of atoms:            16
# Atom types:                       C H N  Sn I
# Number of each atom:              3 8 1  1 3
# Bandgap, HSE06 (eV):              2.9964
# Bandgap, GGA (eV):                2.2412
# Kpoint for VBM:                   0, 0.5, 0.375
# Kpoint for CBM:                   0, 0.5, 0
# Dielectric constant, electronic:  4.24
# Dielectric constant, ionic:       6.7672
# Dielectric constant, total:       11.0071
# Refractive index:                 2.0591
# Atomization energy (eV/atom):     -4.3192
# Relative energy1 (eV/atom):       0.1242
# Relative energy2 (eV/atom):       0.2444
# Volume of the unit cell (A^3):    281.82
# Density (g/cm^3):                 3.2851
# Tool:                             VASP
# Pseudopotential:                  PAW
# Note:                             ENCUT=400eV, k-spacing_relax=0.20/Angstrom, k-spacing_bandgap=0.15/Angstrom
# Created by:                       C.Kim, T.D.Huan, S.Krishnan, R. Ramprasad