data_1
_audit_creation_method   'Generated by vasp2cif'
_cell_length_a    8.62478848114
_cell_length_b    6.82565850597
_cell_length_c    4.83826545859
_cell_angle_alpha    87.1901379559
_cell_angle_beta    91.2141673875
_cell_angle_gamma    81.1562274629

_symmetry_space_group_name_H-M    'P 1'
loop_
_atom_site_label
_atom_site_type_symbol
_atom_site_fract_x
_atom_site_fract_y
_atom_site_fract_z
_atom_site_occupancy
I1   I   0.929408788948187   0.184361978966130   0.775515078419218   1.0
I2   I   0.142263855619205   0.687884961538380   0.320179270271389   1.0
I3   I   0.609312262568423   0.755324386309795   0.716661160635901   1.0
H4   H   0.326500943510425   0.112129264639393   0.716183757331045   1.0
H5   H   0.521958421600786   0.412793637973081   0.819376586372634   1.0
H6   H   0.588477201926175   0.166182775058964   0.817919573935200   1.0
H7   H   0.597704648974599   0.152166135822178   0.301128551638513   1.0
H8   H   0.476612002441499   0.394344385498279   0.294251684957800   1.0
H9   H   0.241826303425313   0.219749063928234   0.291480153473785   1.0
H10   H   0.361340486108496   0.994115853922409   0.207186318634435   1.0
H11   H   0.255666716825033   0.361841151840558   0.810640921799596   1.0
C12   C   0.494004941238309   0.247130977752022   0.210290201026048   1.0
C13   C   0.334551657462718   0.224287604126268   0.864969357261749   1.0
C14   C   0.341350013250093   0.155274441811592   0.174132826003316   1.0
Sn15   Sn   0.853365147127995   0.512601885810263   0.281936070023733   1.0
N16   N   0.504076608972767   0.272801495002433   0.893498488215776   1.0




# HOIP entry ID:                    0905
# Khazana ID:                       2755
# Organic cation source:            B. Zhou et al., Angew. Chem. Int. Ed. 50, 11441 (2011)
# Label:                            Azetidinium Tin Iodide
# Material class:                   Hybrid organic-inorganic perovskite ( MC_ino )
# Geometry class:                   Bulk crystalline materials ( GC_cry )
# Organic cation chemical formula:  C3H6N2
# Number of atom types:             5
# Total number of atoms:            16
# Atom types:                       C H N  Sn I
# Number of each atom:              3 8 1  1 3
# Bandgap, HSE06 (eV):              3.0023
# Bandgap, GGA (eV):                2.1735
# Kpoint for VBM:                   0.2105, 0.2105, 0.2105
# Kpoint for CBM:                   0, 0.3158, 0
# Dielectric constant, electronic:  4.2286
# Dielectric constant, ionic:       6.4553
# Dielectric constant, total:       10.6838
# Refractive index:                 2.0563
# Atomization energy (eV/atom):     -4.3147
# Relative energy1 (eV/atom):       0.1288
# Relative energy2 (eV/atom):       0.249
# Volume of the unit cell (A^3):    280.98
# Density (g/cm^3):                 3.295
# Tool:                             VASP
# Pseudopotential:                  PAW
# Note:                             ENCUT=400eV, k-spacing_relax=0.20/Angstrom, k-spacing_bandgap=0.15/Angstrom
# Created by:                       C.Kim, T.D.Huan, S.Krishnan, R. Ramprasad