data_1
_audit_creation_method   'Generated by vasp2cif'
_cell_length_a    6.5047506217
_cell_length_b    6.74552067341
_cell_length_c    6.58707920064
_cell_angle_alpha    84.2169070979
_cell_angle_beta    82.7569600461
_cell_angle_gamma    95.059746219

_symmetry_space_group_name_H-M    'P 1'
loop_
_atom_site_label
_atom_site_type_symbol
_atom_site_fract_x
_atom_site_fract_y
_atom_site_fract_z
_atom_site_occupancy
I1   I   0.333746195247895   0.710790443602073   0.072053347951968   1.0
I2   I   0.858896657103398   0.736095706908862   0.609831725490272   1.0
I3   I   0.871042761649648   0.198160351626167   0.088850521667446   1.0
H4   H   0.589163644478967   0.017640552512914   0.679437899133018   1.0
H5   H   0.367711728612401   0.961649675213618   0.393000894911090   1.0
H6   H   0.224495354814061   0.506305057548984   0.623753016415109   1.0
H7   H   0.520542902524482   0.340451743745109   0.841285354522485   1.0
H8   H   0.151893609267686   0.258242510516052   0.363219766061279   1.0
C9   C   0.444761739687281   0.290386519345746   0.717071803161739   1.0
C10   C   0.369394473961800   0.085478963211908   0.484461201243416   1.0
C11   C   0.299875461595853   0.371670606428734   0.610213185427613   1.0
Sn12   Sn   0.864377410064853   0.742370024860255   0.141808940764737   1.0
N13   N   0.485418501048390   0.113467877736046   0.635772124617331   1.0
N14   N   0.255539559943411   0.241549966743578   0.466890218632438   1.0




# HOIP entry ID:                    0906
# Khazana ID:                       2756
# Organic cation source:            B.Saparov et al., Chem. Rev. 116, 4558 (2016)
# Label:                            Imidazolium Tin Iodide
# Material class:                   Hybrid organic-inorganic perovskite ( MC_ino )
# Geometry class:                   Bulk crystalline materials ( GC_cry )
# Organic cation chemical formula:  C3H5N2
# Number of atom types:             5
# Total number of atoms:            14
# Atom types:                       C H N  Sn I
# Number of each atom:              3 5 2  1 3
# Bandgap, HSE06 (eV):              1.9719
# Bandgap, GGA (eV):                1.4285
# Kpoint for VBM:                   0.5, 0.5, 0.5
# Kpoint for CBM:                   0.4737, 0.4737, 0.4737
# Dielectric constant, electronic:  5.1382
# Dielectric constant, ionic:       8.4075
# Dielectric constant, total:       13.5457
# Refractive index:                 2.2668
# Atomization energy (eV/atom):     -4.7687
# Relative energy1 (eV/atom):       0.328
# Relative energy2 (eV/atom):       0.4654
# Volume of the unit cell (A^3):    283.77
# Density (g/cm^3):                 3.3268
# Tool:                             VASP
# Pseudopotential:                  PAW
# Note:                             ENCUT=400eV, k-spacing_relax=0.20/Angstrom, k-spacing_bandgap=0.15/Angstrom
# Created by:                       C.Kim, T.D.Huan, S.Krishnan, R. Ramprasad