data_1
_audit_creation_method   'Generated by vasp2cif'
_cell_length_a    6.50011134045
_cell_length_b    6.75642738362
_cell_length_c    6.59799796753
_cell_angle_alpha    95.3952774564
_cell_angle_beta    81.7064381679
_cell_angle_gamma    86.2958285986

_symmetry_space_group_name_H-M    'P 1'
loop_
_atom_site_label
_atom_site_type_symbol
_atom_site_fract_x
_atom_site_fract_y
_atom_site_fract_z
_atom_site_occupancy
I1   I   0.660814018399291   0.751151247455803   0.925036922154526   1.0
I2   I   0.146027993821981   0.768097459086412   0.393591966788466   1.0
I3   I   0.130329701038138   0.248334499650775   0.899987137256407   1.0
H4   H   0.434518976012785   0.034682490236540   0.335241925079116   1.0
H5   H   0.671346715112652   0.011989240753950   0.610514686231184   1.0
H6   H   0.753629790507011   0.562083020116049   0.357715231599002   1.0
H7   H   0.465744124177809   0.357803468911981   0.161921615691119   1.0
H8   H   0.859913771230393   0.330876050104519   0.619932640385213   1.0
C9   C   0.551527080774141   0.320116816222366   0.282499215304485   1.0
C10   C   0.656028698329605   0.131555589423558   0.515093080477026   1.0
C11   C   0.692305729592412   0.420227267103507   0.378758690738022   1.0
Sn12   Sn   0.131907466983325   0.794871846925486   0.862506702581539   1.0
N13   N   0.531850059722834   0.141817552381954   0.370007204007373   1.0
N14   N   0.755235874297816   0.299863451627200   0.521932981706562   1.0




# HOIP entry ID:                    0907
# Khazana ID:                       2757
# Organic cation source:            B.Saparov et al., Chem. Rev. 116, 4558 (2016)
# Label:                            Imidazolium Tin Iodide
# Material class:                   Hybrid organic-inorganic perovskite ( MC_ino )
# Geometry class:                   Bulk crystalline materials ( GC_cry )
# Organic cation chemical formula:  C3H5N2
# Number of atom types:             5
# Total number of atoms:            14
# Atom types:                       C H N  Sn I
# Number of each atom:              3 5 2  1 3
# Bandgap, HSE06 (eV):              1.9179
# Bandgap, GGA (eV):                1.3734
# Kpoint for VBM:                   0.5, 0.5, 0.5
# Kpoint for CBM:                   0.5, 0.5, 0.5
# Dielectric constant, electronic:  5.1332
# Dielectric constant, ionic:       9.1096
# Dielectric constant, total:       14.2428
# Refractive index:                 2.2657
# Atomization energy (eV/atom):     -4.7688
# Relative energy1 (eV/atom):       0.3279
# Relative energy2 (eV/atom):       0.4653
# Volume of the unit cell (A^3):    284.57
# Density (g/cm^3):                 3.3175
# Tool:                             VASP
# Pseudopotential:                  PAW
# Note:                             ENCUT=400eV, k-spacing_relax=0.20/Angstrom, k-spacing_bandgap=0.15/Angstrom
# Created by:                       C.Kim, T.D.Huan, S.Krishnan, R. Ramprasad