data_1
_audit_creation_method   'Generated by vasp2cif'
_cell_length_a    6.72034950567
_cell_length_b    6.57119592041
_cell_length_c    6.57944849995
_cell_angle_alpha    82.948636573
_cell_angle_beta    84.7208826241
_cell_angle_gamma    96.2903273636

_symmetry_space_group_name_H-M    'P 1'
loop_
_atom_site_label
_atom_site_type_symbol
_atom_site_fract_x
_atom_site_fract_y
_atom_site_fract_z
_atom_site_occupancy
I1   I   0.391853216763650   0.783195724538864   0.101521498874561   1.0
I2   I   0.895875940797623   0.742911772431192   0.583269374895508   1.0
I3   I   0.862910867866340   0.290381582525363   0.117055708406141   1.0
H4   H   0.598573519226349   0.330171043933710   0.833059846175175   1.0
H5   H   0.634794231968890   0.049101225337388   0.600992481591447   1.0
H6   H   0.105278596418664   0.318197451964160   0.474509859233955   1.0
H7   H   0.287479304681227   0.514777269935692   0.774119022794274   1.0
H8   H   0.337633601670220   0.047678973395840   0.387376450461673   1.0
C9   C   0.328625862072293   0.390439779911041   0.693447285104284   1.0
C10   C   0.517503685228647   0.148462924928630   0.607160102343471   1.0
C11   C   0.239812582349472   0.294443654776181   0.546294564069186   1.0
Sn12   Sn   0.933198962179468   0.762156789557636   0.116776405311242   1.0
N13   N   0.500275677304373   0.296815913889461   0.728457927147645   1.0
N14   N   0.360183951472813   0.145125892874823   0.495199473591406   1.0




# HOIP entry ID:                    0908
# Khazana ID:                       2758
# Organic cation source:            B.Saparov et al., Chem. Rev. 116, 4558 (2016)
# Label:                            Imidazolium Tin Iodide
# Material class:                   Hybrid organic-inorganic perovskite ( MC_ino )
# Geometry class:                   Bulk crystalline materials ( GC_cry )
# Organic cation chemical formula:  C3H5N2
# Number of atom types:             5
# Total number of atoms:            14
# Atom types:                       C H N  Sn I
# Number of each atom:              3 5 2  1 3
# Bandgap, HSE06 (eV):              1.9703
# Bandgap, GGA (eV):                1.3872
# Kpoint for VBM:                   0.5, 0.5, 0.5
# Kpoint for CBM:                   0.5, 0.5, 0.5
# Dielectric constant, electronic:  5.0937
# Dielectric constant, ionic:       7.9372
# Dielectric constant, total:       13.0309
# Refractive index:                 2.2569
# Atomization energy (eV/atom):     -4.7695
# Relative energy1 (eV/atom):       0.3272
# Relative energy2 (eV/atom):       0.4646
# Volume of the unit cell (A^3):    284.98
# Density (g/cm^3):                 3.3127
# Tool:                             VASP
# Pseudopotential:                  PAW
# Note:                             ENCUT=400eV, k-spacing_relax=0.20/Angstrom, k-spacing_bandgap=0.15/Angstrom
# Created by:                       C.Kim, T.D.Huan, S.Krishnan, R. Ramprasad