data_1
_audit_creation_method   'Generated by vasp2cif'
_cell_length_a    6.5862898211
_cell_length_b    6.5375076622
_cell_length_c    6.73715239014
_cell_angle_alpha    96.4207395001
_cell_angle_beta    95.6778208086
_cell_angle_gamma    96.4203694492

_symmetry_space_group_name_H-M    'P 1'
loop_
_atom_site_label
_atom_site_type_symbol
_atom_site_fract_x
_atom_site_fract_y
_atom_site_fract_z
_atom_site_occupancy
I1   I   0.950477644816338   0.870421062291321   0.444370169195807   1.0
I2   I   0.467313293980240   0.838677359359245   0.945692009020469   1.0
I3   I   0.935046999457327   0.385412946424935   0.908178734407564   1.0
H4   H   0.204772492933998   0.446017522126773   0.629147730738694   1.0
H5   H   0.423079388193514   0.157585804190667   0.697479181950278   1.0
H6   H   0.594359244809212   0.390317447257672   0.165911710456413   1.0
H7   H   0.291119588145221   0.610370945517211   0.313732825341596   1.0
H8   H   0.655451427382879   0.129359371829182   0.416925167969247   1.0
C9   C   0.363558432549048   0.484727903928132   0.367401326496051   1.0
C10   C   0.427405585574000   0.249636255826211   0.574445314942935   1.0
C11   C   0.512562999740716   0.377175179074292   0.295370548026263   1.0
Sn12   Sn   0.931622474456958   0.858920168063385   0.986438335846003   1.0
N13   N   0.313283047473874   0.402288473423098   0.540125752862053   1.0
N14   N   0.549367380486665   0.232149560687823   0.426631192746520   1.0




# HOIP entry ID:                    0909
# Khazana ID:                       2759
# Organic cation source:            B.Saparov et al., Chem. Rev. 116, 4558 (2016)
# Label:                            Imidazolium Tin Iodide
# Material class:                   Hybrid organic-inorganic perovskite ( MC_ino )
# Geometry class:                   Bulk crystalline materials ( GC_cry )
# Organic cation chemical formula:  C3H5N2
# Number of atom types:             5
# Total number of atoms:            14
# Atom types:                       C H N  Sn I
# Number of each atom:              3 5 2  1 3
# Bandgap, HSE06 (eV):              2.0211
# Bandgap, GGA (eV):                1.4518
# Kpoint for VBM:                   0.5, 0.5, 0.5
# Kpoint for CBM:                   0.4737, 0.4737, 0.4737
# Dielectric constant, electronic:  5.072
# Dielectric constant, ionic:       7.2695
# Dielectric constant, total:       12.3415
# Refractive index:                 2.2521
# Atomization energy (eV/atom):     -4.7698
# Relative energy1 (eV/atom):       0.3269
# Relative energy2 (eV/atom):       0.4642
# Volume of the unit cell (A^3):    284.63
# Density (g/cm^3):                 3.3168
# Tool:                             VASP
# Pseudopotential:                  PAW
# Note:                             ENCUT=400eV, k-spacing_relax=0.20/Angstrom, k-spacing_bandgap=0.15/Angstrom
# Created by:                       C.Kim, T.D.Huan, S.Krishnan, R. Ramprasad