data_1
_audit_creation_method   'Generated by vasp2cif'
_cell_length_a    6.54775853285
_cell_length_b    4.46970955658
_cell_length_c    9.68372911307
_cell_angle_alpha    87.5101974388
_cell_angle_beta    89.4156703078
_cell_angle_gamma    79.3638489157

_symmetry_space_group_name_H-M    'P 1'
loop_
_atom_site_label
_atom_site_type_symbol
_atom_site_fract_x
_atom_site_fract_y
_atom_site_fract_z
_atom_site_occupancy
I1   I   0.950067653579035   0.964661644771848   0.772417548638589   1.0
I2   I   0.490059266372378   0.583822241251925   0.041179714949835   1.0
I3   I   0.955740605912760   0.921127573067690   0.276738359179693   1.0
H4   H   0.537990696805994   0.514417605688954   0.311979182280353   1.0
H5   H   0.235815083857739   0.256967754654696   0.656872251763657   1.0
H6   H   0.498664327976548   0.560276359128881   0.749149874414961   1.0
H7   H   0.709221873146982   0.728761475289093   0.515211653703422   1.0
H8   H   0.256449037122104   0.221679289054096   0.394135201790609   1.0
C9   C   0.481974186415445   0.519178698036716   0.641458735661483   1.0
C10   C   0.584526436103847   0.602843884056348   0.526702840525742   1.0
C11   C   0.350390539860036   0.335130532334565   0.457816476550289   1.0
Sn12   Sn   0.959980917099354   0.424394068075293   0.025522036794844   1.0
N13   N   0.337932926093896   0.352683545105601   0.596026147788684   1.0
N14   N   0.500116449653970   0.485445329484278   0.414239975957797   1.0




# HOIP entry ID:                    0910
# Khazana ID:                       2760
# Organic cation source:            B.Saparov et al., Chem. Rev. 116, 4558 (2016)
# Label:                            Imidazolium Tin Iodide
# Material class:                   Hybrid organic-inorganic perovskite ( MC_ino )
# Geometry class:                   Bulk crystalline materials ( GC_cry )
# Organic cation chemical formula:  C3H5N2
# Number of atom types:             5
# Total number of atoms:            14
# Atom types:                       C H N  Sn I
# Number of each atom:              3 5 2  1 3
# Bandgap, HSE06 (eV):              2.8925
# Bandgap, GGA (eV):                2.2115
# Kpoint for VBM:                   0.5, 0.0556, 0.5
# Kpoint for CBM:                   0.5, 0.0556, 0
# Dielectric constant, electronic:  4.5656
# Dielectric constant, ionic:       7.4567
# Dielectric constant, total:       12.0223
# Refractive index:                 2.1367
# Atomization energy (eV/atom):     -4.7687
# Relative energy1 (eV/atom):       0.328
# Relative energy2 (eV/atom):       0.4654
# Volume of the unit cell (A^3):    278.28
# Density (g/cm^3):                 3.3925
# Tool:                             VASP
# Pseudopotential:                  PAW
# Note:                             ENCUT=400eV, k-spacing_relax=0.20/Angstrom, k-spacing_bandgap=0.15/Angstrom
# Created by:                       C.Kim, T.D.Huan, S.Krishnan, R. Ramprasad