data_1
_audit_creation_method   'Generated by vasp2cif'
_cell_length_a    10.2241201821
_cell_length_b    4.52618794285
_cell_length_c    6.54552761484
_cell_angle_alpha    82.2507056266
_cell_angle_beta    84.7433736672
_cell_angle_gamma    69.0295568949

_symmetry_space_group_name_H-M    'P 1'
loop_
_atom_site_label
_atom_site_type_symbol
_atom_site_fract_x
_atom_site_fract_y
_atom_site_fract_z
_atom_site_occupancy
I1   I   0.256817609795341   0.654497620516160   0.970330933244952   1.0
I2   I   0.984759373489808   0.431815290633608   0.510596568117371   1.0
I3   I   0.750617214578860   0.062098708233364   0.002093181572128   1.0
H4   H   0.708100500096386   0.703997715344386   0.594177127832857   1.0
H5   H   0.370561013840572   0.853000022462695   0.251321658859865   1.0
H6   H   0.283498678350455   0.286013169250715   0.498620665705431   1.0
H7   H   0.511373433334406   0.177394888290671   0.738350763435953   1.0
H8   H   0.625634667936509   0.495872241721457   0.306115908940470   1.0
C9   C   0.387967825529905   0.112128645767477   0.495809363463067   1.0
C10   C   0.499574023548050   0.058545877693867   0.613388333373528   1.0
C11   C   0.564106328958232   0.692068725110332   0.391333725726014   1.0
Sn12   Sn   0.002400269807396   0.331574531092841   0.978598488834358   1.0
N13   N   0.430462996844973   0.880676705707977   0.359766142168993   1.0
N14   N   0.607286063888985   0.795985858174447   0.546127138725090   1.0




# HOIP entry ID:                    0911
# Khazana ID:                       2761
# Organic cation source:            B.Saparov et al., Chem. Rev. 116, 4558 (2016)
# Label:                            Imidazolium Tin Iodide
# Material class:                   Hybrid organic-inorganic perovskite ( MC_ino )
# Geometry class:                   Bulk crystalline materials ( GC_cry )
# Organic cation chemical formula:  C3H5N2
# Number of atom types:             5
# Total number of atoms:            14
# Atom types:                       C H N  Sn I
# Number of each atom:              3 5 2  1 3
# Bandgap, HSE06 (eV):              2.6665
# Bandgap, GGA (eV):                2.0147
# Kpoint for VBM:                   0.5, 0, 0.5
# Kpoint for CBM:                   0, 0.5, 0.5
# Dielectric constant, electronic:  4.6516
# Dielectric constant, ionic:       8.3801
# Dielectric constant, total:       13.0317
# Refractive index:                 2.1567
# Atomization energy (eV/atom):     -4.77
# Relative energy1 (eV/atom):       0.3268
# Relative energy2 (eV/atom):       0.4641
# Volume of the unit cell (A^3):    279.95
# Density (g/cm^3):                 3.3722
# Tool:                             VASP
# Pseudopotential:                  PAW
# Note:                             ENCUT=400eV, k-spacing_relax=0.20/Angstrom, k-spacing_bandgap=0.15/Angstrom
# Created by:                       C.Kim, T.D.Huan, S.Krishnan, R. Ramprasad