data_1
_audit_creation_method   'Generated by vasp2cif'
_cell_length_a    9.2472392999
_cell_length_b    4.49948187228
_cell_length_c    6.65114745212
_cell_angle_alpha    100.962549371
_cell_angle_beta    93.7896374635
_cell_angle_gamma    90.6410741583

_symmetry_space_group_name_H-M    'P 1'
loop_
_atom_site_label
_atom_site_type_symbol
_atom_site_fract_x
_atom_site_fract_y
_atom_site_fract_z
_atom_site_occupancy
I1   I   0.738959010524520   0.135511040578922   0.995190440869709   1.0
I2   I   0.001583078293165   0.839861893309047   0.472966336989180   1.0
I3   I   0.264795036650004   0.155170891035347   0.032590464119367   1.0
H4   H   0.306144253394600   0.845476363170524   0.398143014565977   1.0
H5   H   0.538916880528787   0.335728571231151   0.747312442369393   1.0
H6   H   0.720853271091926   0.496711801624972   0.514551759259152   1.0
H7   H   0.565312015462162   0.852725695319552   0.280673745624164   1.0
H8   H   0.283482847043516   0.532601243663346   0.676640379409555   1.0
C9   C   0.608795196949668   0.559159951737132   0.511962933198658   1.0
C10   C   0.532784215943103   0.735507481326683   0.398033782208241   1.0
C11   C   0.380177186807558   0.574166139935269   0.604047937942486   1.0
Sn12   Sn   0.996485550947131   0.646147924277956   0.013772753878563   1.0
N13   N   0.511526761964940   0.461239875612259   0.637806687403363   1.0
N14   N   0.391814694399071   0.742861127177971   0.459537322162204   1.0




# HOIP entry ID:                    0912
# Khazana ID:                       2762
# Organic cation source:            B.Saparov et al., Chem. Rev. 116, 4558 (2016)
# Label:                            Imidazolium Tin Iodide
# Material class:                   Hybrid organic-inorganic perovskite ( MC_ino )
# Geometry class:                   Bulk crystalline materials ( GC_cry )
# Organic cation chemical formula:  C3H5N2
# Number of atom types:             5
# Total number of atoms:            14
# Atom types:                       C H N  Sn I
# Number of each atom:              3 5 2  1 3
# Bandgap, HSE06 (eV):              2.9476
# Bandgap, GGA (eV):                2.2084
# Kpoint for VBM:                   0.5, 0.0556, 0
# Kpoint for CBM:                   0, 0.0556, 0.5
# Dielectric constant, electronic:  4.6234
# Dielectric constant, ionic:       8.1565
# Dielectric constant, total:       12.7799
# Refractive index:                 2.1502
# Atomization energy (eV/atom):     -4.7694
# Relative energy1 (eV/atom):       0.3274
# Relative energy2 (eV/atom):       0.4647
# Volume of the unit cell (A^3):    271.02
# Density (g/cm^3):                 3.4833
# Tool:                             VASP
# Pseudopotential:                  PAW
# Note:                             ENCUT=400eV, k-spacing_relax=0.20/Angstrom, k-spacing_bandgap=0.15/Angstrom
# Created by:                       C.Kim, T.D.Huan, S.Krishnan, R. Ramprasad