data_1
_audit_creation_method   'Generated by vasp2cif'
_cell_length_a    7.11170945307
_cell_length_b    4.52348582231
_cell_length_c    8.86700172852
_cell_angle_alpha    92.8834235278
_cell_angle_beta    88.2323834647
_cell_angle_gamma    79.1767456579

_symmetry_space_group_name_H-M    'P 1'
loop_
_atom_site_label
_atom_site_type_symbol
_atom_site_fract_x
_atom_site_fract_y
_atom_site_fract_z
_atom_site_occupancy
I1   I   0.991498971392502   0.217564369084400   0.270719183280868   1.0
I2   I   0.462477420353167   0.561609445329040   0.996120124431521   1.0
I3   I   0.007037876953845   0.159926330570094   0.740803632649197   1.0
H4   H   0.474844070706944   0.188773453935831   0.741267489274406   1.0
H5   H   0.709304011121866   0.640249955179499   0.374719824826244   1.0
H6   H   0.476470966682037   0.071863943317659   0.263208136899088   1.0
H7   H   0.315071963988103   0.440736106984474   0.513126275015274   1.0
H8   H   0.708607402650799   0.695394836852529   0.662276425348644   1.0
C9   C   0.499401884698052   0.054529927025264   0.382147698622383   1.0
C10   C   0.421948917120780   0.237004434816164   0.504781841292868   1.0
C11   C   0.625199244079845   0.847832193673497   0.589271896721918   1.0
Sn12   Sn   0.024815410394495   0.676598886139779   0.004438592326025   1.0
N13   N   0.624152910293105   0.814067318920593   0.437880267170279   1.0
N14   N   0.502418949564408   0.103858798171125   0.631738612141355   1.0




# HOIP entry ID:                    0913
# Khazana ID:                       2763
# Organic cation source:            B.Saparov et al., Chem. Rev. 116, 4558 (2016)
# Label:                            Imidazolium Tin Iodide
# Material class:                   Hybrid organic-inorganic perovskite ( MC_ino )
# Geometry class:                   Bulk crystalline materials ( GC_cry )
# Organic cation chemical formula:  C3H5N2
# Number of atom types:             5
# Total number of atoms:            14
# Atom types:                       C H N  Sn I
# Number of each atom:              3 5 2  1 3
# Bandgap, HSE06 (eV):              2.7132
# Bandgap, GGA (eV):                2.0007
# Kpoint for VBM:                   0.3, 0.1667, 0.5
# Kpoint for CBM:                   0.5, 0.0556, 0
# Dielectric constant, electronic:  4.4585
# Dielectric constant, ionic:       7.3636
# Dielectric constant, total:       11.822
# Refractive index:                 2.1115
# Atomization energy (eV/atom):     -4.7658
# Relative energy1 (eV/atom):       0.3309
# Relative energy2 (eV/atom):       0.4683
# Volume of the unit cell (A^3):    279.58
# Density (g/cm^3):                 3.3767
# Tool:                             VASP
# Pseudopotential:                  PAW
# Note:                             ENCUT=400eV, k-spacing_relax=0.20/Angstrom, k-spacing_bandgap=0.15/Angstrom
# Created by:                       C.Kim, T.D.Huan, S.Krishnan, R. Ramprasad