data_1
_audit_creation_method   'Generated by vasp2cif'
_cell_length_a    6.70720741794
_cell_length_b    4.54858871855
_cell_length_c    9.94720842561
_cell_angle_alpha    113.434463555
_cell_angle_beta    98.0624484881
_cell_angle_gamma    78.7541106175

_symmetry_space_group_name_H-M    'P 1'
loop_
_atom_site_label
_atom_site_type_symbol
_atom_site_fract_x
_atom_site_fract_y
_atom_site_fract_z
_atom_site_occupancy
I1   I   0.986600440709509   0.158420409691154   0.727000558151765   1.0
I2   I   0.454820505552000   0.720976354008037   0.006068023703676   1.0
I3   I   0.000297474258616   0.607392320781059   0.250053942159958   1.0
H4   H   0.568043475547917   0.171507539180865   0.277138942380802   1.0
H5   H   0.285391667611478   0.422231639111729   0.653496836714687   1.0
H6   H   0.534756571476663   0.829416876376115   0.721709058637053   1.0
H7   H   0.733839158337474   0.653670466336280   0.466407793629557   1.0
H8   H   0.300346874528167   0.024751964984652   0.386608725997363   1.0
C9   C   0.517824716589232   0.641744709741531   0.614547003578878   1.0
C10   C   0.614486086857980   0.556503265440199   0.489333016408175   1.0
C11   C   0.391501421596097   0.215530640214901   0.442617101467533   1.0
Sn12   Sn   0.995046700486412   0.881030066525859   0.989693127619290   1.0
N13   N   0.381226318171606   0.425208051109010   0.582837338148387   1.0
N14   N   0.533748588276936   0.290895696498666   0.384448531402846   1.0




# HOIP entry ID:                    0914
# Khazana ID:                       2764
# Organic cation source:            B.Saparov et al., Chem. Rev. 116, 4558 (2016)
# Label:                            Imidazolium Tin Iodide
# Material class:                   Hybrid organic-inorganic perovskite ( MC_ino )
# Geometry class:                   Bulk crystalline materials ( GC_cry )
# Organic cation chemical formula:  C3H5N2
# Number of atom types:             5
# Total number of atoms:            14
# Atom types:                       C H N  Sn I
# Number of each atom:              3 5 2  1 3
# Bandgap, HSE06 (eV):              2.9414
# Bandgap, GGA (eV):                2.2192
# Kpoint for VBM:                   -0.0833, 0.1111, 0.4
# Kpoint for CBM:                   0.5, -0.0556, 0.1
# Dielectric constant, electronic:  4.5954
# Dielectric constant, ionic:       9.7039
# Dielectric constant, total:       14.2993
# Refractive index:                 2.1437
# Atomization energy (eV/atom):     -4.7706
# Relative energy1 (eV/atom):       0.3261
# Relative energy2 (eV/atom):       0.4634
# Volume of the unit cell (A^3):    272.43
# Density (g/cm^3):                 3.4653
# Tool:                             VASP
# Pseudopotential:                  PAW
# Note:                             ENCUT=400eV, k-spacing_relax=0.20/Angstrom, k-spacing_bandgap=0.15/Angstrom
# Created by:                       C.Kim, T.D.Huan, S.Krishnan, R. Ramprasad