data_1
_audit_creation_method   'Generated by vasp2cif'
_cell_length_a    4.9916598982
_cell_length_b    4.95059050238
_cell_length_c    5.16397029917
_cell_angle_alpha    76.5183237907
_cell_angle_beta    88.0523186839
_cell_angle_gamma    95.265449596

_symmetry_space_group_name_H-M    'P 1'
loop_
_atom_site_label
_atom_site_type_symbol
_atom_site_fract_x
_atom_site_fract_y
_atom_site_fract_z
_atom_site_occupancy
C1   C   0.431772648891780   0.572951503701439   0.335939675277039   1.0
C2   C   0.540371078009400   0.357821304475579   0.208743556069884   1.0
H3   H   0.753428358583925   0.412439992219454   0.147673746744786   1.0
H4   H   0.427768310903083   0.351217142433498   0.035760761817535   1.0
H5   H   0.625567092378752   0.412827195447292   0.680380670535605   1.0
H6   H   0.528077091117595   0.729686900608847   0.674137744861717   1.0
H7   H   0.515554033122932   0.151840786254212   0.342745948497779   1.0
H8   H   0.445215647203526   0.775951329420174   0.198106962628415   1.0
H9   H   0.223886495574185   0.518270143142566   0.413309311297688   1.0
H10   H   0.791476439235304   0.706175909149430   0.479329544583990   1.0
F11   F   0.566932420847415   0.030752413587635   0.805168940819776   1.0
F12   F   0.074143856013528   0.567423209548977   0.846983805408485   1.0
F13   F   0.010543161113716   0.970787272585234   0.304102437380429   1.0
N14   N   0.604252240923593   0.605683844463776   0.560351466286889   1.0
Pb15   Pb   0.055721126081302   0.044761052961867   0.838285427789991   1.0




# HOIP entry ID:                    0915
# Khazana ID:                       2765
# Organic cation source:            B.Saparov et al., Chem. Rev. 116, 4558 (2016)
# Label:                            Ethylammonium Lead Fluoride
# Material class:                   Hybrid organic-inorganic perovskite ( MC_ino )
# Geometry class:                   Bulk crystalline materials ( GC_cry )
# Organic cation chemical formula:  CH3CH2NH3
# Number of atom types:             5
# Total number of atoms:            15
# Atom types:                       C H N  Pb F
# Number of each atom:              2 8 1  1 3
# Bandgap, HSE06 (eV):              4.8985
# Bandgap, GGA (eV):                3.5155
# Kpoint for VBM:                   0.5, 0.5, 0.5
# Kpoint for CBM:                   0.5, 0.5, 0.5
# Dielectric constant, electronic:  3.0114
# Dielectric constant, ionic:       6.5174
# Dielectric constant, total:       9.5289
# Refractive index:                 1.7353
# Atomization energy (eV/atom):     -4.7318
# Relative energy1 (eV/atom):       -0.2708
# Relative energy2 (eV/atom):       0.392
# Volume of the unit cell (A^3):    123.37
# Density (g/cm^3):                 4.1765
# Tool:                             VASP
# Pseudopotential:                  PAW
# Note:                             ENCUT=400eV, k-spacing_relax=0.20/Angstrom, k-spacing_bandgap=0.15/Angstrom
# Created by:                       C.Kim, T.D.Huan, S.Krishnan, R. Ramprasad