data_1
_audit_creation_method   'Generated by vasp2cif'
_cell_length_a    5.30429909746
_cell_length_b    4.80516860869
_cell_length_c    4.9620935575
_cell_angle_alpha    81.7951323294
_cell_angle_beta    75.2375254042
_cell_angle_gamma    85.7952768831

_symmetry_space_group_name_H-M    'P 1'
loop_
_atom_site_label
_atom_site_type_symbol
_atom_site_fract_x
_atom_site_fract_y
_atom_site_fract_z
_atom_site_occupancy
C1   C   0.550882578327083   0.790206423357790   0.332004456258080   1.0
C2   C   0.495683877645840   0.580056392286658   0.158564435453260   1.0
H3   H   0.669715640010096   0.533623424657521   0.001079582012611   1.0
H4   H   0.345810260541653   0.664015219822932   0.053269694164789   1.0
H5   H   0.729373687899067   0.478594424060341   0.563735624051671   1.0
H6   H   0.805731698825847   0.813063198475226   0.586733332486453   1.0
H7   H   0.430713764696236   0.382833195593764   0.285236155858508   1.0
H8   H   0.604659823519104   0.991040827900546   0.207849986019055   1.0
H9   H   0.384610069253763   0.819729887932013   0.505845616836650   1.0
H10   H   0.937639947003134   0.663699904753834   0.295821572583473   1.0
F11   F   0.594950661456851   0.164485557176722   0.751805918728884   1.0
F12   F   0.046396135280939   0.727287791875041   0.869287285273741   1.0
F13   F   0.060412694179078   0.150812682307579   0.292293925407477   1.0
N14   N   0.773396098453774   0.678433788722614   0.456582669700725   1.0
Pb15   Pb   0.133493062907538   0.211917281077439   0.811609745164652   1.0




# HOIP entry ID:                    0916
# Khazana ID:                       2766
# Organic cation source:            B.Saparov et al., Chem. Rev. 116, 4558 (2016)
# Label:                            Ethylammonium Lead Fluoride
# Material class:                   Hybrid organic-inorganic perovskite ( MC_ino )
# Geometry class:                   Bulk crystalline materials ( GC_cry )
# Organic cation chemical formula:  CH3CH2NH3
# Number of atom types:             5
# Total number of atoms:            15
# Atom types:                       C H N  Pb F
# Number of each atom:              2 8 1  1 3
# Bandgap, HSE06 (eV):              5.3697
# Bandgap, GGA (eV):                4.0762
# Kpoint for VBM:                   0.5, 0.5, 0.5
# Kpoint for CBM:                   -0.4375, 0.3125, 0.3125
# Dielectric constant, electronic:  3.0331
# Dielectric constant, ionic:       5.6405
# Dielectric constant, total:       8.6736
# Refractive index:                 1.7416
# Atomization energy (eV/atom):     -4.7267
# Relative energy1 (eV/atom):       -0.2658
# Relative energy2 (eV/atom):       0.3971
# Volume of the unit cell (A^3):    120.96
# Density (g/cm^3):                 4.2597
# Tool:                             VASP
# Pseudopotential:                  PAW
# Note:                             ENCUT=400eV, k-spacing_relax=0.20/Angstrom, k-spacing_bandgap=0.15/Angstrom
# Created by:                       C.Kim, T.D.Huan, S.Krishnan, R. Ramprasad