data_1
_audit_creation_method   'Generated by vasp2cif'
_cell_length_a    4.28100349554
_cell_length_b    3.62848389968
_cell_length_c    7.97023084269
_cell_angle_alpha    95.2870740965
_cell_angle_beta    90.3403667782
_cell_angle_gamma    90.4865192022

_symmetry_space_group_name_H-M    'P 1'
loop_
_atom_site_label
_atom_site_type_symbol
_atom_site_fract_x
_atom_site_fract_y
_atom_site_fract_z
_atom_site_occupancy
C1   C   0.570954568291420   0.756826399728816   0.419536350993901   1.0
C2   C   0.567255279466579   0.550321005040047   0.575199712437104   1.0
H3   H   0.773998485645947   0.381448322827566   0.584821632638594   1.0
H4   H   0.564975950392324   0.760197248752235   0.681448556780936   1.0
H5   H   0.770967462752978   0.348477203098213   0.241522397486335   1.0
H6   H   0.574675681056334   0.687442659632886   0.159541154485296   1.0
H7   H   0.362681554902451   0.923700608651764   0.414161402733789   1.0
H8   H   0.359925145479330   0.377014217968480   0.580865257299997   1.0
H9   H   0.779441264522674   0.928581503128903   0.418204829194927   1.0
H10   H   0.376634509657457   0.343914786613702   0.238958039353754   1.0
F11   F   0.569760392850156   0.944411982465866   0.967464662519625   1.0
F12   F   0.071133269673673   0.070277337157577   0.188841698897292   1.0
F13   F   0.069571986689560   0.042271842397717   0.722500499058789   1.0
N14   N   0.573751854029730   0.515450245960714   0.255636855400212   1.0
Pb15   Pb   0.067812594589405   0.624374636575510   0.919466950719482   1.0




# HOIP entry ID:                    0917
# Khazana ID:                       2767
# Organic cation source:            B.Saparov et al., Chem. Rev. 116, 4558 (2016)
# Label:                            Ethylammonium Lead Fluoride
# Material class:                   Hybrid organic-inorganic perovskite ( MC_ino )
# Geometry class:                   Bulk crystalline materials ( GC_cry )
# Organic cation chemical formula:  CH3CH2NH3
# Number of atom types:             5
# Total number of atoms:            15
# Atom types:                       C H N  Pb F
# Number of each atom:              2 8 1  1 3
# Bandgap, HSE06 (eV):              5.5892
# Bandgap, GGA (eV):                4.2875
# Kpoint for VBM:                   0.5, -0.0455, 0.3
# Kpoint for CBM:                   0.5, -0.0455, 0.1
# Dielectric constant, electronic:  2.9012
# Dielectric constant, ionic:       4.8844
# Dielectric constant, total:       7.7855
# Refractive index:                 1.7033
# Atomization energy (eV/atom):     -4.7203
# Relative energy1 (eV/atom):       -0.2593
# Relative energy2 (eV/atom):       0.4035
# Volume of the unit cell (A^3):    123.27
# Density (g/cm^3):                 4.1799
# Tool:                             VASP
# Pseudopotential:                  PAW
# Note:                             ENCUT=400eV, k-spacing_relax=0.20/Angstrom, k-spacing_bandgap=0.15/Angstrom
# Created by:                       C.Kim, T.D.Huan, S.Krishnan, R. Ramprasad