data_1
_audit_creation_method   'Generated by vasp2cif'
_cell_length_a    7.71115900423
_cell_length_b    3.60772327
_cell_length_c    4.63459792786
_cell_angle_alpha    74.6646561308
_cell_angle_beta    98.7737559861
_cell_angle_gamma    89.2121827935

_symmetry_space_group_name_H-M    'P 1'
loop_
_atom_site_label
_atom_site_type_symbol
_atom_site_fract_x
_atom_site_fract_y
_atom_site_fract_z
_atom_site_occupancy
C1   C   0.459865230261393   0.593939168969008   0.366400247220184   1.0
C2   C   0.403197451843283   0.660783102706709   0.648508349051632   1.0
H3   H   0.382378373639895   0.389267789930095   0.805626165052132   1.0
H4   H   0.501585260546747   0.808914073749243   0.763813135305078   1.0
H5   H   0.668966820424913   0.214607830318364   0.648772866927011   1.0
H6   H   0.735532766724404   0.615572471230522   0.453800536837214   1.0
H7   H   0.374899688582914   0.400920897946847   0.274349684498574   1.0
H8   H   0.279370035225952   0.833479192091666   0.591915687206175   1.0
H9   H   0.459487698502592   0.857384237014529   0.188205989402988   1.0
H10   H   0.670034619207243   0.284056948901188   0.270976625151917   1.0
F11   F   0.932791632829620   0.816950376997411   0.578933800005210   1.0
F12   F   0.742060347361615   0.073004238583771   0.013330837864487   1.0
F13   F   0.177914713788063   0.083356733942381   0.003246096592690   1.0
N14   N   0.643360496499810   0.412599751214159   0.436258300696686   1.0
Pb15   Pb   0.996464864561560   0.563933186404157   0.104711678187940   1.0




# HOIP entry ID:                    0918
# Khazana ID:                       2768
# Organic cation source:            B.Saparov et al., Chem. Rev. 116, 4558 (2016)
# Label:                            Ethylammonium Lead Fluoride
# Material class:                   Hybrid organic-inorganic perovskite ( MC_ino )
# Geometry class:                   Bulk crystalline materials ( GC_cry )
# Organic cation chemical formula:  CH3CH2NH3
# Number of atom types:             5
# Total number of atoms:            15
# Atom types:                       C H N  Pb F
# Number of each atom:              2 8 1  1 3
# Bandgap, HSE06 (eV):              6.1129
# Bandgap, GGA (eV):                4.7133
# Kpoint for VBM:                   0.1, -0.3182, 0.3889
# Kpoint for CBM:                   0.4, 0, 0
# Dielectric constant, electronic:  2.902
# Dielectric constant, ionic:       5.2309
# Dielectric constant, total:       8.1329
# Refractive index:                 1.7035
# Atomization energy (eV/atom):     -4.7343
# Relative energy1 (eV/atom):       -0.2734
# Relative energy2 (eV/atom):       0.3895
# Volume of the unit cell (A^3):    122.69
# Density (g/cm^3):                 4.1997
# Tool:                             VASP
# Pseudopotential:                  PAW
# Note:                             ENCUT=400eV, k-spacing_relax=0.20/Angstrom, k-spacing_bandgap=0.15/Angstrom
# Created by:                       C.Kim, T.D.Huan, S.Krishnan, R. Ramprasad