data_1
_audit_creation_method   'Generated by vasp2cif'
_cell_length_a    5.00056646114
_cell_length_b    3.7654120761
_cell_length_c    7.05040463461
_cell_angle_alpha    98.5636743778
_cell_angle_beta    101.677216345
_cell_angle_gamma    97.1822260492

_symmetry_space_group_name_H-M    'P 1'
loop_
_atom_site_label
_atom_site_type_symbol
_atom_site_fract_x
_atom_site_fract_y
_atom_site_fract_z
_atom_site_occupancy
C1   C   0.405434304566519   0.859428962380946   0.624965521610271   1.0
C2   C   0.587019736327953   0.637920278531141   0.525422232007159   1.0
H3   H   0.473238252664267   0.448232131141907   0.393363289931280   1.0
H4   H   0.737963250869143   0.825095826762599   0.482422777827743   1.0
H5   H   0.091820604431824   0.426745248573567   0.606045083925693   1.0
H6   H   0.089315494910750   0.800182610108713   0.771540880701892   1.0
H7   H   0.530476042983359   0.062217787917490   0.746290809375289   1.0
H8   H   0.693761588198072   0.483046182318318   0.626230545382469   1.0
H9   H   0.277632454367740   0.990185231119789   0.521878749050401   1.0
H10   H   0.325148257587422   0.533522033468834   0.830747560431917   1.0
F11   F   0.504277817335442   0.520421485203130   0.055977108721557   1.0
F12   F   0.941113170564627   0.101671010603958   0.894509913103612   1.0
F13   F   0.951750458384296   0.221195643099321   0.356517598677826   1.0
N14   N   0.213626418883315   0.631895975974054   0.713499434140587   1.0
Pb15   Pb   0.980022147925283   0.649769592796176   0.135108495112227   1.0




# HOIP entry ID:                    0919
# Khazana ID:                       2769
# Organic cation source:            B.Saparov et al., Chem. Rev. 116, 4558 (2016)
# Label:                            Ethylammonium Lead Fluoride
# Material class:                   Hybrid organic-inorganic perovskite ( MC_ino )
# Geometry class:                   Bulk crystalline materials ( GC_cry )
# Organic cation chemical formula:  CH3CH2NH3
# Number of atom types:             5
# Total number of atoms:            15
# Atom types:                       C H N  Pb F
# Number of each atom:              2 8 1  1 3
# Bandgap, HSE06 (eV):              5.7557
# Bandgap, GGA (eV):                4.4267
# Kpoint for VBM:                   0.5, 0.5, 0
# Kpoint for CBM:                   0.4375, 0, 0.0833
# Dielectric constant, electronic:  2.8387
# Dielectric constant, ionic:       5.0182
# Dielectric constant, total:       7.8569
# Refractive index:                 1.6849
# Atomization energy (eV/atom):     -4.7308
# Relative energy1 (eV/atom):       -0.2699
# Relative energy2 (eV/atom):       0.3929
# Volume of the unit cell (A^3):    126.9
# Density (g/cm^3):                 4.0603
# Tool:                             VASP
# Pseudopotential:                  PAW
# Note:                             ENCUT=400eV, k-spacing_relax=0.20/Angstrom, k-spacing_bandgap=0.15/Angstrom
# Created by:                       C.Kim, T.D.Huan, S.Krishnan, R. Ramprasad