data_1
_audit_creation_method   'Generated by vasp2cif'
_cell_length_a    4.35117203701
_cell_length_b    3.5031664709
_cell_length_c    8.8666543053
_cell_angle_alpha    64.8415288705
_cell_angle_beta    90.6364000277
_cell_angle_gamma    83.9939062055

_symmetry_space_group_name_H-M    'P 1'
loop_
_atom_site_label
_atom_site_type_symbol
_atom_site_fract_x
_atom_site_fract_y
_atom_site_fract_z
_atom_site_occupancy
C1   C   0.286927952001932   0.487659775822330   0.607141423840922   1.0
C2   C   0.540311023511975   0.439286261258402   0.498707512335635   1.0
H3   H   0.437457064266383   0.425602763806779   0.389008727321837   1.0
H4   H   0.676784137090607   0.705029990705079   0.458855623803729   1.0
H5   H   0.465801953503629   0.115928159381561   0.855647332800913   1.0
H6   H   0.235449623042285   0.559392231377949   0.826815788971665   1.0
H7   H   0.156682630465987   0.800161551671629   0.546922498637656   1.0
H8   H   0.696771435849655   0.148602061978153   0.564246927535891   1.0
H9   H   0.125292838217376   0.255068405693727   0.633255708990205   1.0
H10   H   0.606925312630686   0.579008812690986   0.773327510035571   1.0
F11   F   0.432638123944571   0.651978152842176   0.075277280193269   1.0
F12   F   0.901715810380182   0.762733793179436   0.857130332627356   1.0
F13   F   0.003113028411875   0.225700460420619   0.314289021801756   1.0
N14   N   0.410889547074255   0.432092234069465   0.775817557300734   1.0
Pb15   Pb   0.919059519608609   0.927525345101820   0.117516753802818   1.0




# HOIP entry ID:                    0920
# Khazana ID:                       2770
# Organic cation source:            B.Saparov et al., Chem. Rev. 116, 4558 (2016)
# Label:                            Ethylammonium Lead Fluoride
# Material class:                   Hybrid organic-inorganic perovskite ( MC_ino )
# Geometry class:                   Bulk crystalline materials ( GC_cry )
# Organic cation chemical formula:  CH3CH2NH3
# Number of atom types:             5
# Total number of atoms:            15
# Atom types:                       C H N  Pb F
# Number of each atom:              2 8 1  1 3
# Bandgap, HSE06 (eV):              5.6133
# Bandgap, GGA (eV):                4.2614
# Kpoint for VBM:                   -0.3889, 0.25, 0.1667
# Kpoint for CBM:                   0.5, 0, 0
# Dielectric constant, electronic:  2.9469
# Dielectric constant, ionic:       5.3984
# Dielectric constant, total:       8.3453
# Refractive index:                 1.7166
# Atomization energy (eV/atom):     -4.7276
# Relative energy1 (eV/atom):       -0.2666
# Relative energy2 (eV/atom):       0.3962
# Volume of the unit cell (A^3):    121.43
# Density (g/cm^3):                 4.2432
# Tool:                             VASP
# Pseudopotential:                  PAW
# Note:                             ENCUT=400eV, k-spacing_relax=0.20/Angstrom, k-spacing_bandgap=0.15/Angstrom
# Created by:                       C.Kim, T.D.Huan, S.Krishnan, R. Ramprasad