data_1
_audit_creation_method   'Generated by vasp2cif'
_cell_length_a    7.51169956872
_cell_length_b    4.01500931622
_cell_length_c    4.68080200672
_cell_angle_alpha    115.902359979
_cell_angle_beta    79.4662332841
_cell_angle_gamma    104.011748972

_symmetry_space_group_name_H-M    'P 1'
loop_
_atom_site_label
_atom_site_type_symbol
_atom_site_fract_x
_atom_site_fract_y
_atom_site_fract_z
_atom_site_occupancy
C1   C   0.571074448329682   0.472819121393854   0.445197221093331   1.0
C2   C   0.705708772972251   0.837695459137407   0.585999629928651   1.0
H3   H   0.823237127855371   0.785131748011267   0.654477085357300   1.0
H4   H   0.759972867565594   0.962193371156914   0.415382631783920   1.0
H5   H   0.436262634644614   0.614806666657984   0.155299457800595   1.0
H6   H   0.349409846107875   0.748750542520426   0.526922109287788   1.0
H7   H   0.635290543442217   0.266287915295337   0.237982530752554   1.0
H8   H   0.638658221514611   0.039142580047795   0.793676279089517   1.0
H9   H   0.515108437616270   0.351619361773807   0.616861627730273   1.0
H10   H   0.313635171576244   0.291822701445959   0.275932992608993   1.0
F11   F   0.341725566459921   0.817143417357435   0.981181969013910   1.0
F12   F   0.004289241971911   0.291591445981489   0.289984103643114   1.0
F13   F   0.171371336034106   0.043791257854046   0.641044607884275   1.0
N14   N   0.409874472308125   0.537137514920204   0.344708403403601   1.0
Pb15   Pb   0.036791311601185   0.592146896446089   0.922769350622183   1.0




# HOIP entry ID:                    0921
# Khazana ID:                       2771
# Organic cation source:            B.Saparov et al., Chem. Rev. 116, 4558 (2016)
# Label:                            Ethylammonium Lead Fluoride
# Material class:                   Hybrid organic-inorganic perovskite ( MC_ino )
# Geometry class:                   Bulk crystalline materials ( GC_cry )
# Organic cation chemical formula:  CH3CH2NH3
# Number of atom types:             5
# Total number of atoms:            15
# Atom types:                       C H N  Pb F
# Number of each atom:              2 8 1  1 3
# Bandgap, HSE06 (eV):              6.177
# Bandgap, GGA (eV):                4.7721
# Kpoint for VBM:                   -0.4, 0.45, 0.3636
# Kpoint for CBM:                   0.5, 0.2, 0.0455
# Dielectric constant, electronic:  2.9359
# Dielectric constant, ionic:       6.935
# Dielectric constant, total:       9.8709
# Refractive index:                 1.7134
# Atomization energy (eV/atom):     -4.7227
# Relative energy1 (eV/atom):       -0.2617
# Relative energy2 (eV/atom):       0.4011
# Volume of the unit cell (A^3):    122.73
# Density (g/cm^3):                 4.1983
# Tool:                             VASP
# Pseudopotential:                  PAW
# Note:                             ENCUT=400eV, k-spacing_relax=0.20/Angstrom, k-spacing_bandgap=0.15/Angstrom
# Created by:                       C.Kim, T.D.Huan, S.Krishnan, R. Ramprasad