data_1
_audit_creation_method   'Generated by vasp2cif'
_cell_length_a    4.2159221763
_cell_length_b    3.4779580291
_cell_length_c    8.30803335887
_cell_angle_alpha    95.37637578
_cell_angle_beta    86.5373763828
_cell_angle_gamma    83.9273955695

_symmetry_space_group_name_H-M    'P 1'
loop_
_atom_site_label
_atom_site_type_symbol
_atom_site_fract_x
_atom_site_fract_y
_atom_site_fract_z
_atom_site_occupancy
C1   C   0.419082015692683   0.107597915053832   0.466414360474068   1.0
C2   C   0.663485546382481   0.955421991431923   0.578007970619176   1.0
H3   H   0.830773985642719   0.720909792364267   0.516555979298996   1.0
H4   H   0.799729246817138   0.182849829006137   0.626281033633338   1.0
H5   H   0.394299081255539   0.354315544125001   0.248436634478356   1.0
H6   H   0.659477359780469   0.943991477148383   0.235428589016932   1.0
H7   H   0.251498076251218   0.901981115938215   0.434819973837359   1.0
H8   H   0.542804865722770   0.836526290606517   0.678306336482958   1.0
H9   H   0.283760860143773   0.372717112855879   0.522807245520207   1.0
H10   H   0.760634831861472   0.356905318755847   0.314457232642663   1.0
F11   F   0.582777191950772   0.517101239856210   0.992878063806953   1.0
F12   F   0.049160530113742   0.618641024511227   0.218657930749098   1.0
F13   F   0.111899464759147   0.562288040775434   0.759496216515301   1.0
N14   N   0.568434720573030   0.195217517595910   0.306220160704522   1.0
Pb15   Pb   0.112472223053126   0.135685789975266   0.956102272220085   1.0




# HOIP entry ID:                    0922
# Khazana ID:                       2772
# Organic cation source:            B.Saparov et al., Chem. Rev. 116, 4558 (2016)
# Label:                            Ethylammonium Lead Fluoride
# Material class:                   Hybrid organic-inorganic perovskite ( MC_ino )
# Geometry class:                   Bulk crystalline materials ( GC_cry )
# Organic cation chemical formula:  CH3CH2NH3
# Number of atom types:             5
# Total number of atoms:            15
# Atom types:                       C H N  Pb F
# Number of each atom:              2 8 1  1 3
# Bandgap, HSE06 (eV):              5.1533
# Bandgap, GGA (eV):                3.8792
# Kpoint for VBM:                   0, 0.4583, 0
# Kpoint for CBM:                   0.5, 0, 0.1
# Dielectric constant, electronic:  2.9912
# Dielectric constant, ionic:       6.36
# Dielectric constant, total:       9.3512
# Refractive index:                 1.7295
# Atomization energy (eV/atom):     -4.7212
# Relative energy1 (eV/atom):       -0.2602
# Relative energy2 (eV/atom):       0.4026
# Volume of the unit cell (A^3):    120.3
# Density (g/cm^3):                 4.2831
# Tool:                             VASP
# Pseudopotential:                  PAW
# Note:                             ENCUT=400eV, k-spacing_relax=0.20/Angstrom, k-spacing_bandgap=0.15/Angstrom
# Created by:                       C.Kim, T.D.Huan, S.Krishnan, R. Ramprasad