data_1
_audit_creation_method   'Generated by vasp2cif'
_cell_length_a    4.55163423019
_cell_length_b    3.70661924857
_cell_length_c    7.79575342031
_cell_angle_alpha    88.0860893776
_cell_angle_beta    83.7219752407
_cell_angle_gamma    69.1442484939

_symmetry_space_group_name_H-M    'P 1'
loop_
_atom_site_label
_atom_site_type_symbol
_atom_site_fract_x
_atom_site_fract_y
_atom_site_fract_z
_atom_site_occupancy
C1   C   0.393716834887457   0.618932218989642   0.507730108704905   1.0
C2   C   0.696840020288590   0.679182361602990   0.535421789329781   1.0
H3   H   0.882255683879777   0.405372343623768   0.555437748785614   1.0
H4   H   0.776592067342030   0.824123875544004   0.426055329109872   1.0
H5   H   0.644223392933945   0.312134486164695   0.279462757625737   1.0
H6   H   0.332575021731614   0.708272521026942   0.246486442707159   1.0
H7   H   0.347468148399656   0.414575454984835   0.599715890740818   1.0
H8   H   0.656009527419187   0.856685728999608   0.650428527039999   1.0
H9   H   0.192715545022587   0.885529356181060   0.521947067888213   1.0
H10   H   0.266608428064444   0.321653132769278   0.310821876322748   1.0
F11   F   0.488326060738039   0.407089283458433   0.979623962269322   1.0
F12   F   0.027263177818021   0.137843906679009   0.205614333838156   1.0
F13   F   0.112972343939660   0.125176528263637   0.782015224444159   1.0
N14   N   0.413602039738755   0.473964364091323   0.326921425145564   1.0
Pb15   Pb   0.931771707796258   0.689984437620929   0.959957516047908   1.0




# HOIP entry ID:                    0923
# Khazana ID:                       2773
# Organic cation source:            B.Saparov et al., Chem. Rev. 116, 4558 (2016)
# Label:                            Ethylammonium Lead Fluoride
# Material class:                   Hybrid organic-inorganic perovskite ( MC_ino )
# Geometry class:                   Bulk crystalline materials ( GC_cry )
# Organic cation chemical formula:  CH3CH2NH3
# Number of atom types:             5
# Total number of atoms:            15
# Atom types:                       C H N  Pb F
# Number of each atom:              2 8 1  1 3
# Bandgap, HSE06 (eV):              5.592
# Bandgap, GGA (eV):                4.215
# Kpoint for VBM:                   0.3333, -0.2917, 0.4
# Kpoint for CBM:                   0.0556, 0, 0.5
# Dielectric constant, electronic:  2.9368
# Dielectric constant, ionic:       6.153
# Dielectric constant, total:       9.0898
# Refractive index:                 1.7137
# Atomization energy (eV/atom):     -4.733
# Relative energy1 (eV/atom):       -0.2721
# Relative energy2 (eV/atom):       0.3907
# Volume of the unit cell (A^3):    122.17
# Density (g/cm^3):                 4.2175
# Tool:                             VASP
# Pseudopotential:                  PAW
# Note:                             ENCUT=400eV, k-spacing_relax=0.20/Angstrom, k-spacing_bandgap=0.15/Angstrom
# Created by:                       C.Kim, T.D.Huan, S.Krishnan, R. Ramprasad