data_1
_audit_creation_method   'Generated by vasp2cif'
_cell_length_a    8.87837217355
_cell_length_b    3.68631570048
_cell_length_c    3.79423467758
_cell_angle_alpha    87.2207658306
_cell_angle_beta    84.2860977507
_cell_angle_gamma    80.8478681457

_symmetry_space_group_name_H-M    'P 1'
loop_
_atom_site_label
_atom_site_type_symbol
_atom_site_fract_x
_atom_site_fract_y
_atom_site_fract_z
_atom_site_occupancy
C1   C   0.374291442805927   0.792578980828303   0.369964411100859   1.0
C2   C   0.502037535918149   0.514730992314227   0.505066383695180   1.0
H3   H   0.544883303893293   0.296908540851860   0.321827306896942   1.0
H4   H   0.594113633991157   0.666872516281046   0.544337076409619   1.0
H5   H   0.229605547386562   0.464784367935088   0.145671860650751   1.0
H6   H   0.140572932016127   0.857121817301419   0.295716536348941   1.0
H7   H   0.343805505628104   0.012149956232122   0.554092731984859   1.0
H8   H   0.467409633001431   0.390444523501173   0.760726701351892   1.0
H9   H   0.409104953943093   0.904153996456202   0.109819261344057   1.0
H10   H   0.191796796959622   0.510417051609075   0.577894316578025   1.0
F11   F   0.918177583777428   0.896004634458073   0.411560670524082   1.0
F12   F   0.135340974319199   0.211224286689038   0.886762653669912   1.0
F13   F   0.675313113197433   0.941308819193900   0.960681466919496   1.0
N14   N   0.227448819791292   0.646679214546225   0.345802397801407   1.0
Pb15   Pb   0.854278223371082   0.351960301802286   0.912626224723986   1.0




# HOIP entry ID:                    0924
# Khazana ID:                       2774
# Organic cation source:            B.Saparov et al., Chem. Rev. 116, 4558 (2016)
# Label:                            Ethylammonium Lead Fluoride
# Material class:                   Hybrid organic-inorganic perovskite ( MC_ino )
# Geometry class:                   Bulk crystalline materials ( GC_cry )
# Organic cation chemical formula:  CH3CH2NH3
# Number of atom types:             5
# Total number of atoms:            15
# Atom types:                       C H N  Pb F
# Number of each atom:              2 8 1  1 3
# Bandgap, HSE06 (eV):              4.1518
# Bandgap, GGA (eV):                2.8657
# Kpoint for VBM:                   0, 0.5, 0
# Kpoint for CBM:                   0.1, 0.0455, 0.5
# Dielectric constant, electronic:  2.9876
# Dielectric constant, ionic:       7.2513
# Dielectric constant, total:       10.2389
# Refractive index:                 1.7285
# Atomization energy (eV/atom):     -4.7258
# Relative energy1 (eV/atom):       -0.2648
# Relative energy2 (eV/atom):       0.398
# Volume of the unit cell (A^3):    121.92
# Density (g/cm^3):                 4.2262
# Tool:                             VASP
# Pseudopotential:                  PAW
# Note:                             ENCUT=400eV, k-spacing_relax=0.20/Angstrom, k-spacing_bandgap=0.15/Angstrom
# Created by:                       C.Kim, T.D.Huan, S.Krishnan, R. Ramprasad