data_1
_audit_creation_method   'Generated by vasp2cif'
_cell_length_a    9.11438975098
_cell_length_b    3.89969260202
_cell_length_c    3.59086412811
_cell_angle_alpha    95.3175475561
_cell_angle_beta    74.4822885749
_cell_angle_gamma    89.3660445437

_symmetry_space_group_name_H-M    'P 1'
loop_
_atom_site_label
_atom_site_type_symbol
_atom_site_fract_x
_atom_site_fract_y
_atom_site_fract_z
_atom_site_occupancy
C1   C   0.603678617607741   0.730147367055075   0.605738159584810   1.0
C2   C   0.485912415362428   0.494298636808857   0.505591541369903   1.0
H3   H   0.434893264267622   0.342445586808864   0.742848198886314   1.0
H4   H   0.397803054181019   0.649232444046980   0.440292780352060   1.0
H5   H   0.732884861545692   0.365175028967563   0.817605962876634   1.0
H6   H   0.822217732526049   0.717385110414234   0.685644018330798   1.0
H7   H   0.641899065953062   0.909554533108661   0.390302798933803   1.0
H8   H   0.534041772360936   0.318831560292139   0.246618115975963   1.0
H9   H   0.556654840155197   0.873589658242267   0.887021433862778   1.0
H10   H   0.799771924435348   0.399957569453854   0.355395354451645   1.0
F11   F   0.062303305720796   0.576323970822045   0.392610948105229   1.0
F12   F   0.847742965610891   0.070468575047698   0.004543586859910   1.0
F13   F   0.306940149157533   0.017376458350959   0.149750455878319   1.0
N14   N   0.746943303593071   0.542357416480655   0.616744468944113   1.0
Pb15   Pb   0.125982727522711   0.101506084100123   0.774592175587770   1.0




# HOIP entry ID:                    0925
# Khazana ID:                       2775
# Organic cation source:            B.Saparov et al., Chem. Rev. 116, 4558 (2016)
# Label:                            Ethylammonium Lead Fluoride
# Material class:                   Hybrid organic-inorganic perovskite ( MC_ino )
# Geometry class:                   Bulk crystalline materials ( GC_cry )
# Organic cation chemical formula:  CH3CH2NH3
# Number of atom types:             5
# Total number of atoms:            15
# Atom types:                       C H N  Pb F
# Number of each atom:              2 8 1  1 3
# Bandgap, HSE06 (eV):              4.4619
# Bandgap, GGA (eV):                3.1934
# Kpoint for VBM:                   0.25, 0, 0.5
# Kpoint for CBM:                   0, 0.5, 0
# Dielectric constant, electronic:  2.9787
# Dielectric constant, ionic:       6.4357
# Dielectric constant, total:       9.4144
# Refractive index:                 1.7259
# Atomization energy (eV/atom):     -4.7284
# Relative energy1 (eV/atom):       -0.2675
# Relative energy2 (eV/atom):       0.3953
# Volume of the unit cell (A^3):    122.36
# Density (g/cm^3):                 4.211
# Tool:                             VASP
# Pseudopotential:                  PAW
# Note:                             ENCUT=400eV, k-spacing_relax=0.20/Angstrom, k-spacing_bandgap=0.15/Angstrom
# Created by:                       C.Kim, T.D.Huan, S.Krishnan, R. Ramprasad