data_1
_audit_creation_method   'Generated by vasp2cif'
_cell_length_a    8.26003354025
_cell_length_b    4.0934713679
_cell_length_c    4.52251050689
_cell_angle_alpha    79.3992687461
_cell_angle_beta    104.195658444
_cell_angle_gamma    122.727847481

_symmetry_space_group_name_H-M    'P 1'
loop_
_atom_site_label
_atom_site_type_symbol
_atom_site_fract_x
_atom_site_fract_y
_atom_site_fract_z
_atom_site_occupancy
C1   C   0.628489881197718   0.716998641834702   0.466394881140586   1.0
C2   C   0.489949966763296   0.556150635746217   0.693358202682891   1.0
H3   H   0.354736494618330   0.292391482597308   0.613858953492539   1.0
H4   H   0.556716073093651   0.475805400461952   0.907980286100708   1.0
H5   H   0.727025734972423   0.352627320402445   0.653722875262435   1.0
H6   H   0.759469767746626   0.483573379641502   0.291688663032309   1.0
H7   H   0.568358645763336   0.790402005531152   0.241428606894101   1.0
H8   H   0.453576942266732   0.762282697414850   0.732028311676581   1.0
H9   H   0.770891220728122   0.966412456375282   0.540216532428833   1.0
H10   H   0.528674567592664   0.171584849738786   0.355158250152693   1.0
F11   F   0.044880802766804   0.950878171491780   0.512130129493061   1.0
F12   F   0.851351482386718   0.406015614137294   0.012762384355201   1.0
F13   F   0.299019413352002   0.892570660958932   0.167319772179973   1.0
N14   N   0.663532686713163   0.408425795471207   0.436764515876619   1.0
Pb15   Pb   0.094016320038390   0.207010888196563   0.019507635231482   1.0




# HOIP entry ID:                    0926
# Khazana ID:                       2776
# Organic cation source:            B.Saparov et al., Chem. Rev. 116, 4558 (2016)
# Label:                            Ethylammonium Lead Fluoride
# Material class:                   Hybrid organic-inorganic perovskite ( MC_ino )
# Geometry class:                   Bulk crystalline materials ( GC_cry )
# Organic cation chemical formula:  CH3CH2NH3
# Number of atom types:             5
# Total number of atoms:            15
# Atom types:                       C H N  Pb F
# Number of each atom:              2 8 1  1 3
# Bandgap, HSE06 (eV):              5.118
# Bandgap, GGA (eV):                3.7979
# Kpoint for VBM:                   0.5, 0.5, 0.5
# Kpoint for CBM:                   0.1, 0, 0.3889
# Dielectric constant, electronic:  2.9003
# Dielectric constant, ionic:       14.1593
# Dielectric constant, total:       17.0596
# Refractive index:                 1.703
# Atomization energy (eV/atom):     -4.716
# Relative energy1 (eV/atom):       -0.255
# Relative energy2 (eV/atom):       0.4078
# Volume of the unit cell (A^3):    124.46
# Density (g/cm^3):                 4.1399
# Tool:                             VASP
# Pseudopotential:                  PAW
# Note:                             ENCUT=400eV, k-spacing_relax=0.20/Angstrom, k-spacing_bandgap=0.15/Angstrom
# Created by:                       C.Kim, T.D.Huan, S.Krishnan, R. Ramprasad