data_1
_audit_creation_method   'Generated by vasp2cif'
_cell_length_a    4.79111687342
_cell_length_b    4.93650710402
_cell_length_c    6.76338808651
_cell_angle_alpha    73.9170879489
_cell_angle_beta    89.842763201
_cell_angle_gamma    89.769359303

_symmetry_space_group_name_H-M    'P 1'
loop_
_atom_site_label
_atom_site_type_symbol
_atom_site_fract_x
_atom_site_fract_y
_atom_site_fract_z
_atom_site_occupancy
C1   C   0.654193431048434   0.698144965025456   0.405921320416930   1.0
C2   C   0.647375310051373   0.405693441449408   0.373847197012182   1.0
C3   C   0.652139861740146   0.433282060529663   0.144594674161638   1.0
H4   H   0.841576029119373   0.540010277106141   0.073924981111766   1.0
H5   H   0.648500347072357   0.229548883581437   0.114726671930200   1.0
H6   H   0.457549913045661   0.294057122726222   0.441717203462879   1.0
H7   H   0.829436223213023   0.282761490019979   0.446110216989346   1.0
H8   H   0.472912204507971   0.581721210483309   0.698801922539225   1.0
H9   H   0.651101436244119   0.880854734328935   0.655439899083895   1.0
H10   H   0.470242119898607   0.550555871576094   0.068770914718265   1.0
H11   H   0.843433804559034   0.810389371759278   0.342123550352710   1.0
H12   H   0.472435668286586   0.821635890086903   0.337856963853241   1.0
H13   H   0.825386083242876   0.578528632006282   0.701229503581494   1.0
F14   F   0.650800564932311   0.091439209881123   0.831274829874182   1.0
F15   F   0.150469640432441   0.496622972251188   0.782082698076543   1.0
F16   F   0.152267688646489   0.077560013140207   0.226307648285193   1.0
N17   N   0.650481788419420   0.684422532832670   0.629654055068336   1.0
Pb18   Pb   0.150777885539803   0.012861321215709   0.914485749481997   1.0




# HOIP entry ID:                    0927
# Khazana ID:                       2777
# Organic cation source:            S.Kataoka et al., J. Am. Chem. Soc. 137, 4158 (2015)
# Label:                            Propylammonium Lead Fluoride
# Material class:                   Hybrid organic-inorganic perovskite ( MC_ino )
# Geometry class:                   Bulk crystalline materials ( GC_cry )
# Organic cation chemical formula:  CH3CH2CH2NH3
# Number of atom types:             5
# Total number of atoms:            18
# Atom types:                       C H N  Pb F
# Number of each atom:              3 10 1  1 3
# Bandgap, HSE06 (eV):              5.4361
# Bandgap, GGA (eV):                4.1737
# Kpoint for VBM:                   0.5, 0.5, 0.5
# Kpoint for CBM:                   0, 0, 0.5
# Dielectric constant, electronic:  2.7622
# Dielectric constant, ionic:       3.0974
# Dielectric constant, total:       5.8596
# Refractive index:                 1.662
# Atomization energy (eV/atom):     -4.7843
# Relative energy1 (eV/atom):       -0.2751
# Relative energy2 (eV/atom):       0.2773
# Volume of the unit cell (A^3):    153.7
# Density (g/cm^3):                 3.5039
# Tool:                             VASP
# Pseudopotential:                  PAW
# Note:                             ENCUT=400eV, k-spacing_relax=0.20/Angstrom, k-spacing_bandgap=0.15/Angstrom
# Created by:                       C.Kim, T.D.Huan, S.Krishnan, R. Ramprasad