data_1
_audit_creation_method   'Generated by vasp2cif'
_cell_length_a    4.84025325465
_cell_length_b    4.77820594297
_cell_length_c    6.87230260269
_cell_angle_alpha    104.650143779
_cell_angle_beta    75.5215704713
_cell_angle_gamma    92.0108494387

_symmetry_space_group_name_H-M    'P 1'
loop_
_atom_site_label
_atom_site_type_symbol
_atom_site_fract_x
_atom_site_fract_y
_atom_site_fract_z
_atom_site_occupancy
C1   C   0.428566926541038   0.713513592562734   0.587460022034371   1.0
C2   C   0.386359825398891   0.443676619291814   0.670115913262144   1.0
C3   C   0.473699851663589   0.490694906600758   0.873644722043871   1.0
H4   H   0.360251229989814   0.678553319233757   0.987849169527635   1.0
H5   H   0.424177633978815   0.303735336284134   0.937814134533156   1.0
H6   H   0.512443761328605   0.262097032119136   0.555195867535652   1.0
H7   H   0.162417082829798   0.381774094299381   0.691484003791395   1.0
H8   H   0.246093454187985   0.506251438546997   0.344158708347564   1.0
H9   H   0.284899525561990   0.862079086022838   0.359968741556699   1.0
H10   H   0.702017475815971   0.522445052118641   0.850328145622072   1.0
H11   H   0.370844586039546   0.907511552789984   0.712473661114565   1.0
H12   H   0.644842121708770   0.729576463187293   0.499600011591490   1.0
H13   H   0.034256815564589   0.762653233666256   0.540624249629175   1.0
F14   F   0.327004532723684   0.131664365407353   0.229968758168553   1.0
F15   F   0.858918148241862   0.616284210281165   0.181693737422620   1.0
F16   F   0.867694707546349   0.993397816159316   0.778511344660110   1.0
N17   N   0.236620266760802   0.708285012518715   0.444955872956797   1.0
Pb18   Pb   0.849292054117946   0.097696868909665   0.119902936202237   1.0




# HOIP entry ID:                    0928
# Khazana ID:                       2778
# Organic cation source:            S.Kataoka et al., J. Am. Chem. Soc. 137, 4158 (2015)
# Label:                            Propylammonium Lead Fluoride
# Material class:                   Hybrid organic-inorganic perovskite ( MC_ino )
# Geometry class:                   Bulk crystalline materials ( GC_cry )
# Organic cation chemical formula:  CH3CH2CH2NH3
# Number of atom types:             5
# Total number of atoms:            18
# Atom types:                       C H N  Pb F
# Number of each atom:              3 10 1  1 3
# Bandgap, HSE06 (eV):              5.2155
# Bandgap, GGA (eV):                3.8004
# Kpoint for VBM:                   0.5, 0.5, 0.4737
# Kpoint for CBM:                   0.375, 0.375, 0.5
# Dielectric constant, electronic:  2.85
# Dielectric constant, ionic:       4.7431
# Dielectric constant, total:       7.5931
# Refractive index:                 1.6882
# Atomization energy (eV/atom):     -4.7881
# Relative energy1 (eV/atom):       -0.2789
# Relative energy2 (eV/atom):       0.2735
# Volume of the unit cell (A^3):    148.82
# Density (g/cm^3):                 3.6188
# Tool:                             VASP
# Pseudopotential:                  PAW
# Note:                             ENCUT=400eV, k-spacing_relax=0.20/Angstrom, k-spacing_bandgap=0.15/Angstrom
# Created by:                       C.Kim, T.D.Huan, S.Krishnan, R. Ramprasad