data_1
_audit_creation_method   'Generated by vasp2cif'
_cell_length_a    5.08076811016
_cell_length_b    4.80943312461
_cell_length_c    6.47915930152
_cell_angle_alpha    106.67895773
_cell_angle_beta    75.9534303087
_cell_angle_gamma    92.9016921282

_symmetry_space_group_name_H-M    'P 1'
loop_
_atom_site_label
_atom_site_type_symbol
_atom_site_fract_x
_atom_site_fract_y
_atom_site_fract_z
_atom_site_occupancy
C1   C   0.516059713880538   0.641571275729256   0.601474210501247   1.0
C2   C   0.432524626035874   0.400882760834009   0.711632670650221   1.0
C3   C   0.599401595697926   0.402334009649420   0.876801848227836   1.0
H4   H   0.567197027616457   0.609275491121143   0.004793834255049   1.0
H5   H   0.535923716218015   0.231784199085820   0.956244797421599   1.0
H6   H   0.455858399086460   0.193063407407276   0.583812231641098   1.0
H7   H   0.217441433829517   0.426208530389724   0.795244894096173   1.0
H8   H   0.322896181663242   0.437318702284942   0.347558149930314   1.0
H9   H   0.367547611841473   0.789197227619675   0.364064272666494   1.0
H10   H   0.815208910175927   0.371258176388726   0.798533221964228   1.0
H11   H   0.498345927806492   0.851887333064797   0.723894990724012   1.0
H12   H   0.721960829904468   0.611709987851769   0.498438491202835   1.0
H13   H   0.137873295861306   0.701856459059501   0.563102403427919   1.0
F14   F   0.370849143833173   0.050850430771004   0.224540950916106   1.0
F15   F   0.992328336029450   0.519316448935353   0.173981056580742   1.0
F16   F   0.979858310568874   0.911252838704881   0.816020879465078   1.0
N17   N   0.326469323108473   0.641182121761723   0.455602979978799   1.0
Pb18   Pb   0.910195616842316   0.023320599340988   0.180448116350391   1.0




# HOIP entry ID:                    0929
# Khazana ID:                       2779
# Organic cation source:            S.Kataoka et al., J. Am. Chem. Soc. 137, 4158 (2015)
# Label:                            Propylammonium Lead Fluoride
# Material class:                   Hybrid organic-inorganic perovskite ( MC_ino )
# Geometry class:                   Bulk crystalline materials ( GC_cry )
# Organic cation chemical formula:  CH3CH2CH2NH3
# Number of atom types:             5
# Total number of atoms:            18
# Atom types:                       C H N  Pb F
# Number of each atom:              3 10 1  1 3
# Bandgap, HSE06 (eV):              5.5169
# Bandgap, GGA (eV):                4.0936
# Kpoint for VBM:                   0.5, 0.5, 0.5
# Kpoint for CBM:                   0.5, 0.5, 0.5
# Dielectric constant, electronic:  2.872
# Dielectric constant, ionic:       4.3804
# Dielectric constant, total:       7.2524
# Refractive index:                 1.6947
# Atomization energy (eV/atom):     -4.7856
# Relative energy1 (eV/atom):       -0.2764
# Relative energy2 (eV/atom):       0.2759
# Volume of the unit cell (A^3):    147.1
# Density (g/cm^3):                 3.6611
# Tool:                             VASP
# Pseudopotential:                  PAW
# Note:                             ENCUT=400eV, k-spacing_relax=0.20/Angstrom, k-spacing_bandgap=0.15/Angstrom
# Created by:                       C.Kim, T.D.Huan, S.Krishnan, R. Ramprasad