data_1
_audit_creation_method   'Generated by vasp2cif'
_cell_length_a    4.93568114602
_cell_length_b    5.4091899877
_cell_length_c    5.59293905104
_cell_angle_alpha    99.9256144813
_cell_angle_beta    79.4578693538
_cell_angle_gamma    91.2361480231

_symmetry_space_group_name_H-M    'P 1'
loop_
_atom_site_label
_atom_site_type_symbol
_atom_site_fract_x
_atom_site_fract_y
_atom_site_fract_z
_atom_site_occupancy
C1   C   0.566786374168188   0.572378632294019   0.569095670161168   1.0
C2   C   0.514005119104937   0.471150361962458   0.808774151985929   1.0
C3   C   0.547092105282701   0.188571367540575   0.763291812850490   1.0
H4   H   0.756105970715801   0.134448098167304   0.666298932244665   1.0
H5   H   0.515970947445048   0.116373052276792   0.935349217455709   1.0
H6   H   0.306275100485898   0.523488302665100   0.907810846699682   1.0
H7   H   0.662425576647529   0.554318662150585   0.920020361462576   1.0
H8   H   0.349009214891517   0.288844440093904   0.366705139662812   1.0
H9   H   0.370338743442019   0.563999741280519   0.266743365085979   1.0
H10   H   0.396365475027032   0.098099410207162   0.657963272248388   1.0
H11   H   0.555911829397935   0.773974453874459   0.598495269487991   1.0
H12   H   0.761326832791838   0.505460524930413   0.454639459071792   1.0
H13   H   0.161152630490150   0.549775319647949   0.528888747673022   1.0
F14   F   0.398283965299136   0.952453711790987   0.243538727847565   1.0
F15   F   0.962398335107380   0.336810265832277   0.121115881463083   1.0
F16   F   0.024721566340141   0.823514663385801   0.733647873717729   1.0
N17   N   0.346545557657279   0.481696375519370   0.420774611491218   1.0
Pb18   Pb   0.933884655705562   0.923772616380276   0.149516659390073   1.0




# HOIP entry ID:                    0930
# Khazana ID:                       2780
# Organic cation source:            S.Kataoka et al., J. Am. Chem. Soc. 137, 4158 (2015)
# Label:                            Propylammonium Lead Fluoride
# Material class:                   Hybrid organic-inorganic perovskite ( MC_ino )
# Geometry class:                   Bulk crystalline materials ( GC_cry )
# Organic cation chemical formula:  CH3CH2CH2NH3
# Number of atom types:             5
# Total number of atoms:            18
# Atom types:                       C H N  Pb F
# Number of each atom:              3 10 1  1 3
# Bandgap, HSE06 (eV):              5.8036
# Bandgap, GGA (eV):                4.4675
# Kpoint for VBM:                   0.5, 0.5, 0.5
# Kpoint for CBM:                   -0.25, 0.5, 0.2143
# Dielectric constant, electronic:  2.9126
# Dielectric constant, ionic:       3.7359
# Dielectric constant, total:       6.6484
# Refractive index:                 1.7066
# Atomization energy (eV/atom):     -4.7699
# Relative energy1 (eV/atom):       -0.2606
# Relative energy2 (eV/atom):       0.2917
# Volume of the unit cell (A^3):    144.6
# Density (g/cm^3):                 3.7244
# Tool:                             VASP
# Pseudopotential:                  PAW
# Note:                             ENCUT=400eV, k-spacing_relax=0.20/Angstrom, k-spacing_bandgap=0.15/Angstrom
# Created by:                       C.Kim, T.D.Huan, S.Krishnan, R. Ramprasad