data_1
_audit_creation_method   'Generated by vasp2cif'
_cell_length_a    5.2191681395
_cell_length_b    5.22864993992
_cell_length_c    5.43653494757
_cell_angle_alpha    75.1435295612
_cell_angle_beta    90.4893202811
_cell_angle_gamma    84.6333612311

_symmetry_space_group_name_H-M    'P 1'
loop_
_atom_site_label
_atom_site_type_symbol
_atom_site_fract_x
_atom_site_fract_y
_atom_site_fract_z
_atom_site_occupancy
C1   C   0.608841356036121   0.624965938528744   0.375884988614367   1.0
C2   C   0.656282831379506   0.403581328469815   0.244703921168457   1.0
C3   C   0.405562347530774   0.288586809704117   0.206687743479097   1.0
H4   H   0.250230540302743   0.443388444386045   0.127017600394699   1.0
H5   H   0.429311166094207   0.156328102305542   0.083184783853595   1.0
H6   H   0.798872107258178   0.246263767393630   0.350333523377536   1.0
H7   H   0.744909475555084   0.482241684098480   0.063650817565981   1.0
H8   H   0.552050374446486   0.339332306028877   0.717813855354615   1.0
H9   H   0.280788351007430   0.515911884873687   0.598211181466857   1.0
H10   H   0.340085731927928   0.172400868346120   0.387038092027865   1.0
H11   H   0.785192682794023   0.698099374095634   0.419866380497683   1.0
H12   H   0.480073660015002   0.786071333838500   0.261575190055660   1.0
H13   H   0.503532048230059   0.657743862523497   0.731930168123343   1.0
F14   F   0.567069898570384   0.961986420714153   0.799360071390530   1.0
F15   F   0.996003448269981   0.390722697291946   0.757491124533047   1.0
F16   F   0.061691712204034   0.883163953088728   0.233355511474921   1.0
N17   N   0.475756829863370   0.527465970506045   0.622361703120629   1.0
Pb18   Pb   0.026755438514674   0.940445253806499   0.812913343501287   1.0




# HOIP entry ID:                    0931
# Khazana ID:                       2781
# Organic cation source:            S.Kataoka et al., J. Am. Chem. Soc. 137, 4158 (2015)
# Label:                            Propylammonium Lead Fluoride
# Material class:                   Hybrid organic-inorganic perovskite ( MC_ino )
# Geometry class:                   Bulk crystalline materials ( GC_cry )
# Organic cation chemical formula:  CH3CH2CH2NH3
# Number of atom types:             5
# Total number of atoms:            18
# Atom types:                       C H N  Pb F
# Number of each atom:              3 10 1  1 3
# Bandgap, HSE06 (eV):              5.6809
# Bandgap, GGA (eV):                4.3448
# Kpoint for VBM:                   0.5, 0.5, 0.5
# Kpoint for CBM:                   0.5, 0.5, 0.5
# Dielectric constant, electronic:  2.9429
# Dielectric constant, ionic:       3.6797
# Dielectric constant, total:       6.6226
# Refractive index:                 1.7155
# Atomization energy (eV/atom):     -4.7754
# Relative energy1 (eV/atom):       -0.2662
# Relative energy2 (eV/atom):       0.2862
# Volume of the unit cell (A^3):    142.69
# Density (g/cm^3):                 3.7743
# Tool:                             VASP
# Pseudopotential:                  PAW
# Note:                             ENCUT=400eV, k-spacing_relax=0.20/Angstrom, k-spacing_bandgap=0.15/Angstrom
# Created by:                       C.Kim, T.D.Huan, S.Krishnan, R. Ramprasad