data_1
_audit_creation_method   'Generated by vasp2cif'
_cell_length_a    5.22455763143
_cell_length_b    4.99439215506
_cell_length_c    5.64194849216
_cell_angle_alpha    82.8409533565
_cell_angle_beta    80.0656111901
_cell_angle_gamma    81.9940606307

_symmetry_space_group_name_H-M    'P 1'
loop_
_atom_site_label
_atom_site_type_symbol
_atom_site_fract_x
_atom_site_fract_y
_atom_site_fract_z
_atom_site_occupancy
C1   C   0.545763438715402   0.643840893977440   0.355220163722222   1.0
C2   C   0.555455372256885   0.466678753174845   0.154780115971562   1.0
C3   C   0.359485633386816   0.262756417375066   0.225302678413705   1.0
H4   H   0.162215841939805   0.363558507709113   0.218479770296838   1.0
H5   H   0.399621787108876   0.107226426126912   0.102627197394335   1.0
H6   H   0.755141994394905   0.368053731405061   0.106817142687262   1.0
H7   H   0.509507703109376   0.598508972069729   0.995520596765687   1.0
H8   H   0.898072865979124   0.478044865205928   0.468156256124943   1.0
H9   H   0.647320519173585   0.315761428988328   0.619505722009736   1.0
H10   H   0.370310748989480   0.164555805650019   0.407289965183437   1.0
H11   H   0.631412373508263   0.828742361618815   0.293259779082396   1.0
H12   H   0.345395991157684   0.685940856938550   0.443278064901795   1.0
H13   H   0.693372770894995   0.631118993625859   0.673716078468169   1.0
F14   F   0.646931887571309   0.980266456234644   0.760726619804677   1.0
F15   F   0.114919071635874   0.455153149027047   0.784876693625950   1.0
F16   F   0.015449472970375   0.870361937112438   0.231391816906316   1.0
N17   N   0.703865090363540   0.502684043652926   0.542266304547869   1.0
Pb18   Pb   0.096147436843641   0.942706400107290   0.826165034093061   1.0




# HOIP entry ID:                    0932
# Khazana ID:                       2782
# Organic cation source:            S.Kataoka et al., J. Am. Chem. Soc. 137, 4158 (2015)
# Label:                            Propylammonium Lead Fluoride
# Material class:                   Hybrid organic-inorganic perovskite ( MC_ino )
# Geometry class:                   Bulk crystalline materials ( GC_cry )
# Organic cation chemical formula:  CH3CH2CH2NH3
# Number of atom types:             5
# Total number of atoms:            18
# Atom types:                       C H N  Pb F
# Number of each atom:              3 10 1  1 3
# Bandgap, HSE06 (eV):              5.2657
# Bandgap, GGA (eV):                3.7495
# Kpoint for VBM:                   0.5, 0.5, 0.5
# Kpoint for CBM:                   0.5, 0.5, 0
# Dielectric constant, electronic:  2.9849
# Dielectric constant, ionic:       6.5243
# Dielectric constant, total:       9.5093
# Refractive index:                 1.7277
# Atomization energy (eV/atom):     -4.7676
# Relative energy1 (eV/atom):       -0.2583
# Relative energy2 (eV/atom):       0.294
# Volume of the unit cell (A^3):    142.83
# Density (g/cm^3):                 3.7706
# Tool:                             VASP
# Pseudopotential:                  PAW
# Note:                             ENCUT=400eV, k-spacing_relax=0.20/Angstrom, k-spacing_bandgap=0.15/Angstrom
# Created by:                       C.Kim, T.D.Huan, S.Krishnan, R. Ramprasad