data_1
_audit_creation_method   'Generated by vasp2cif'
_cell_length_a    4.6695187274
_cell_length_b    3.66575041464
_cell_length_c    8.86416804862
_cell_angle_alpha    90.4155136293
_cell_angle_beta    109.36489474
_cell_angle_gamma    98.5195436674

_symmetry_space_group_name_H-M    'P 1'
loop_
_atom_site_label
_atom_site_type_symbol
_atom_site_fract_x
_atom_site_fract_y
_atom_site_fract_z
_atom_site_occupancy
C1   C   0.039405911922430   0.582393346123730   0.446820998188869   1.0
C2   C   0.702937577720064   0.621534867327902   0.408587829691562   1.0
C3   C   0.567230960230759   0.763534113308452   0.242704688921243   1.0
H4   H   0.717871822706833   0.998830823085420   0.222452925733059   1.0
H5   H   0.347964177525199   0.851530208477968   0.228343242734901   1.0
H6   H   0.573010787914008   0.353453460514927   0.416166851685397   1.0
H7   H   0.683919266109889   0.805948337766864   0.500877894624509   1.0
H8   H   0.000130853505674   0.274166593245837   0.641800831785382   1.0
H9   H   0.220722558332866   0.674519871457264   0.699613887256568   1.0
H10   H   0.068719311930181   0.385767772898348   0.362801132458536   1.0
H11   H   0.525799853735563   0.544444481093045   0.150526647504087   1.0
H12   H   0.179631769320380   0.844255472124750   0.441544216284441   1.0
H13   H   0.362560905702246   0.334084942738933   0.633596835475018   1.0
F14   F   0.289822063403655   0.940175011018887   0.873258866663249   1.0
F15   F   0.688320048855417   0.147823430412771   0.699863526042940   1.0
F16   F   0.015418908460035   0.244760262714927   0.107945945557574   1.0
N17   N   0.166393121201352   0.455990911240633   0.613958276487466   1.0
Pb18   Pb   0.826900101423512   0.732036094449221   0.929375402905045   1.0




# HOIP entry ID:                    0934
# Khazana ID:                       2784
# Organic cation source:            S.Kataoka et al., J. Am. Chem. Soc. 137, 4158 (2015)
# Label:                            Propylammonium Lead Fluoride
# Material class:                   Hybrid organic-inorganic perovskite ( MC_ino )
# Geometry class:                   Bulk crystalline materials ( GC_cry )
# Organic cation chemical formula:  CH3CH2CH2NH3
# Number of atom types:             5
# Total number of atoms:            18
# Atom types:                       C H N  Pb F
# Number of each atom:              3 10 1  1 3
# Bandgap, HSE06 (eV):              5.9225
# Bandgap, GGA (eV):                4.5982
# Kpoint for VBM:                   0.5, 0.5, 0.5
# Kpoint for CBM:                   0.5, 0.0455, 0.1
# Dielectric constant, electronic:  2.9049
# Dielectric constant, ionic:       4.3065
# Dielectric constant, total:       7.2114
# Refractive index:                 1.7044
# Atomization energy (eV/atom):     -4.7918
# Relative energy1 (eV/atom):       -0.2826
# Relative energy2 (eV/atom):       0.2698
# Volume of the unit cell (A^3):    141.31
# Density (g/cm^3):                 3.8111
# Tool:                             VASP
# Pseudopotential:                  PAW
# Note:                             ENCUT=400eV, k-spacing_relax=0.20/Angstrom, k-spacing_bandgap=0.15/Angstrom
# Created by:                       C.Kim, T.D.Huan, S.Krishnan, R. Ramprasad