data_1
_audit_creation_method   'Generated by vasp2cif'
_cell_length_a    4.86444854413
_cell_length_b    4.83153215546
_cell_length_c    6.87108655651
_cell_angle_alpha    80.7355765041
_cell_angle_beta    112.98985746
_cell_angle_gamma    80.7831992148

_symmetry_space_group_name_H-M    'P 1'
loop_
_atom_site_label
_atom_site_type_symbol
_atom_site_fract_x
_atom_site_fract_y
_atom_site_fract_z
_atom_site_occupancy
C1   C   0.138914423044374   0.370000920105918   0.640981190110417   1.0
C2   C   0.318639053138075   0.596745805355447   0.633589818228460   1.0
C3   C   0.549109415216448   0.564499607198319   0.868745497550017   1.0
H4   H   0.510494380765340   0.411132773850454   0.984592537033815   1.0
H5   H   0.538230597529128   0.770096795144022   0.912720157977443   1.0
H6   H   0.438164361322151   0.563856885421199   0.530991694035842   1.0
H7   H   0.160053296855801   0.809959702382189   0.565728341089439   1.0
H8   H   0.978475429265151   0.332025482156894   0.321954721529524   1.0
H9   H   0.760153684544454   0.597140343743955   0.355010952739097   1.0
H10   H   0.292677956935564   0.155439300862589   0.697607180438737   1.0
H11   H   0.783287750377547   0.489462940427279   0.890179548057238   1.0
H12   H   0.031556630941407   0.403849492336667   0.749754467140189   1.0
H13   H   0.748967913592664   0.246939286385987   0.444467149102426   1.0
F14   F   0.732480430316364   0.944025760168946   0.203049412781012   1.0
F15   F   0.226512552284912   0.377991714621199   0.197788669113667   1.0
F16   F   0.802359629780025   0.986422274859345   0.719646734480341   1.0
N17   N   0.883584229005209   0.384409045908187   0.426060443426853   1.0
Pb18   Pb   0.127938265085372   0.912521869071504   0.081481485165376   1.0




# HOIP entry ID:                    0936
# Khazana ID:                       2786
# Organic cation source:            S.Kataoka et al., J. Am. Chem. Soc. 137, 4158 (2015)
# Label:                            Propylammonium Lead Fluoride
# Material class:                   Hybrid organic-inorganic perovskite ( MC_ino )
# Geometry class:                   Bulk crystalline materials ( GC_cry )
# Organic cation chemical formula:  CH3CH2CH2NH3
# Number of atom types:             5
# Total number of atoms:            18
# Atom types:                       C H N  Pb F
# Number of each atom:              3 10 1  1 3
# Bandgap, HSE06 (eV):              5.7525
# Bandgap, GGA (eV):                4.341
# Kpoint for VBM:                   0.5, 0.5, 0.5
# Kpoint for CBM:                   0.2895, 0.2895, 0.2895
# Dielectric constant, electronic:  2.9352
# Dielectric constant, ionic:       4.7427
# Dielectric constant, total:       7.6778
# Refractive index:                 1.7132
# Atomization energy (eV/atom):     -4.7611
# Relative energy1 (eV/atom):       -0.2519
# Relative energy2 (eV/atom):       0.3004
# Volume of the unit cell (A^3):    142.23
# Density (g/cm^3):                 3.7865
# Tool:                             VASP
# Pseudopotential:                  PAW
# Note:                             ENCUT=400eV, k-spacing_relax=0.20/Angstrom, k-spacing_bandgap=0.15/Angstrom
# Created by:                       C.Kim, T.D.Huan, S.Krishnan, R. Ramprasad