data_1
_audit_creation_method   'Generated by vasp2cif'
_cell_length_a    4.83150455935
_cell_length_b    4.87291000573
_cell_length_c    7.73516878708
_cell_angle_alpha    63.4035953577
_cell_angle_beta    118.846469832
_cell_angle_gamma    99.1985892978

_symmetry_space_group_name_H-M    'P 1'
loop_
_atom_site_label
_atom_site_type_symbol
_atom_site_fract_x
_atom_site_fract_y
_atom_site_fract_z
_atom_site_occupancy
C1   C   0.918578929062041   0.604022652527972   0.385496776117797   1.0
C2   C   0.693754496939580   0.778699472042604   0.391731672790823   1.0
C3   C   0.493674655979040   0.011657196718137   0.156725066463495   1.0
H4   H   0.569747294820977   0.241638812218490   0.132144360364607   1.0
H5   H   0.247340699583410   0.021858657068527   0.117898836713654   1.0
H6   H   0.547016134278288   0.616837445029974   0.456039199345061   1.0
H7   H   0.823431947899598   0.896155489365937   0.496622160584320   1.0
H8   H   0.974930882663222   0.227739771060572   0.671947683069564   1.0
H9   H   0.278982890474569   0.438805169009593   0.704668990567863   1.0
H10   H   0.778931992720548   0.498799979263838   0.274872034672834   1.0
H11   H   0.512275997681377   0.958518902578273   0.039709376400448   1.0
H12   H   0.077604269622662   0.759464159915504   0.331351879751609   1.0
H13   H   0.231501773900852   0.208854624084610   0.581260614279443   1.0
F14   F   0.359919702039012   0.691651119962881   0.825567035510767   1.0
F15   F   0.782003284814241   0.204995997288068   0.824842675848105   1.0
F16   F   0.222547310806984   0.270285423089055   0.305124877938203   1.0
N17   N   0.117262563940467   0.346551949645773   0.600417770148058   1.0
Pb18   Pb   0.939695172773128   0.601053179130212   0.943188989433461   1.0




# HOIP entry ID:                    0937
# Khazana ID:                       2787
# Organic cation source:            S.Kataoka et al., J. Am. Chem. Soc. 137, 4158 (2015)
# Label:                            Propylammonium Lead Fluoride
# Material class:                   Hybrid organic-inorganic perovskite ( MC_ino )
# Geometry class:                   Bulk crystalline materials ( GC_cry )
# Organic cation chemical formula:  CH3CH2CH2NH3
# Number of atom types:             5
# Total number of atoms:            18
# Atom types:                       C H N  Pb F
# Number of each atom:              3 10 1  1 3
# Bandgap, HSE06 (eV):              5.7574
# Bandgap, GGA (eV):                4.3901
# Kpoint for VBM:                   0.5, 0.5, 0.0263
# Kpoint for CBM:                   -0.2778, 0.2778, 0
# Dielectric constant, electronic:  2.9366
# Dielectric constant, ionic:       4.576
# Dielectric constant, total:       7.5126
# Refractive index:                 1.7137
# Atomization energy (eV/atom):     -4.7612
# Relative energy1 (eV/atom):       -0.252
# Relative energy2 (eV/atom):       0.3004
# Volume of the unit cell (A^3):    142.27
# Density (g/cm^3):                 3.7854
# Tool:                             VASP
# Pseudopotential:                  PAW
# Note:                             ENCUT=400eV, k-spacing_relax=0.20/Angstrom, k-spacing_bandgap=0.15/Angstrom
# Created by:                       C.Kim, T.D.Huan, S.Krishnan, R. Ramprasad