data_1
_audit_creation_method   'Generated by vasp2cif'
_cell_length_a    4.89939365771
_cell_length_b    5.5051723114
_cell_length_c    6.93735336469
_cell_angle_alpha    71.3463603362
_cell_angle_beta    80.8085319916
_cell_angle_gamma    82.4779031993

_symmetry_space_group_name_H-M    'P 1'
loop_
_atom_site_label
_atom_site_type_symbol
_atom_site_fract_x
_atom_site_fract_y
_atom_site_fract_z
_atom_site_occupancy
C1   C   0.581640318507006   0.641671886257591   0.809083023877278   1.0
C2   C   0.467376447617482   0.201332149742939   0.502017297168287   1.0
C3   C   0.416400915541573   0.349359033100207   0.655628112143830   1.0
C4   C   0.608777366462860   0.561265296832886   0.615905757940219   1.0
H5   H   0.224456437323639   0.467897595622617   0.285147794695071   1.0
H6   H   0.430741533752922   0.258953114132808   0.197296224197949   1.0
H7   H   0.570755011840163   0.503613336933562   0.233426040056031   1.0
H8   H   0.362630003603868   0.671334648507170   0.867470807191033   1.0
H9   H   0.682491632298834   0.488626423684515   0.925882281203144   1.0
H10   H   0.684330291014540   0.812505683034928   0.787566045834758   1.0
H11   H   0.442404520066447   0.208420337008775   0.804596716105756   1.0
H12   H   0.200747802938111   0.432530762548772   0.664418014629312   1.0
H13   H   0.823115194339358   0.490884118693245   0.576664184666377   1.0
H14   H   0.552487068365451   0.723040726304298   0.484979326898994   1.0
H15   H   0.682048027424329   0.117578944264672   0.493347974026037   1.0
H16   H   0.325454413483953   0.052019142875444   0.542256888999027   1.0
F17   F   0.978161132968175   0.028748444079227   0.776838449525911   1.0
F18   F   0.432181005166427   0.954255143425385   0.145064666682209   1.0
F19   F   0.932207340706455   0.566703463506542   0.179218884526257   1.0
N20   N   0.421904219161320   0.373236709238633   0.290910503930064   1.0
Pb21   Pb   0.942919317417100   0.003043040205817   0.099361005702455   1.0




# HOIP entry ID:                    0939
# Khazana ID:                       2789
# Organic cation source:            H. Hu et al., Sci. Rep. 6, 33546 (2016)
# Label:                            Butylammonium Lead Fluoride
# Material class:                   Hybrid organic-inorganic perovskite ( MC_ino )
# Geometry class:                   Bulk crystalline materials ( GC_cry )
# Organic cation chemical formula:  CH3CH2CH2CH2NH3
# Number of atom types:             5
# Total number of atoms:            21
# Atom types:                       C H N  Pb F
# Number of each atom:              4 12 1  1 3
# Bandgap, HSE06 (eV):              5.9181
# Bandgap, GGA (eV):                4.5935
# Kpoint for VBM:                   0.5, 0.5, 0
# Kpoint for CBM:                   0, 0.5, 0.5
# Dielectric constant, electronic:  2.7405
# Dielectric constant, ionic:       3.1538
# Dielectric constant, total:       5.8944
# Refractive index:                 1.6555
# Atomization energy (eV/atom):     -4.817
# Relative energy1 (eV/atom):       -0.2733
# Relative energy2 (eV/atom):       0.2001
# Volume of the unit cell (A^3):    174.37
# Density (g/cm^3):                 3.2221
# Tool:                             VASP
# Pseudopotential:                  PAW
# Note:                             ENCUT=400eV, k-spacing_relax=0.20/Angstrom, k-spacing_bandgap=0.15/Angstrom
# Created by:                       C.Kim, T.D.Huan, S.Krishnan, R. Ramprasad