data_1
_audit_creation_method   'Generated by vasp2cif'
_cell_length_a    5.52760715017
_cell_length_b    5.33819517554
_cell_length_c    5.03540300267
_cell_angle_alpha    75.532623698
_cell_angle_beta    82.0147873815
_cell_angle_gamma    91.6628865052

_symmetry_space_group_name_H-M    'P 1'
loop_
_atom_site_label
_atom_site_type_symbol
_atom_site_fract_x
_atom_site_fract_y
_atom_site_fract_z
_atom_site_occupancy
C1   C   0.415607740076865   0.613732626587314   0.342676129102514   1.0
C2   C   0.618388628716197   0.763510195109042   0.419703536806431   1.0
C3   C   0.530651230081638   0.908746976845322   0.632747390565527   1.0
H4   H   0.445531235791506   0.079542576932454   0.529561548818457   1.0
H5   H   0.395274969345728   0.786676617918644   0.794702010019101   1.0
H6   H   0.681511729578339   0.968277571480435   0.723997357189958   1.0
H7   H   0.922985077746183   0.665109121890602   0.623042808260870   1.0
H8   H   0.714269254582575   0.895523763886935   0.231765456233340   1.0
H9   H   0.281701813823183   0.743933347925918   0.259592497653081   1.0
H10   H   0.319717578050835   0.473577126336188   0.525274488718232   1.0
H11   H   0.483727361684494   0.510183757282476   0.190485177297518   1.0
H12   H   0.890153633437961   0.500593509001064   0.381084858513660   1.0
H13   H   0.704352963463194   0.428137068586310   0.694634291049717   1.0
F14   F   0.522241534240777   0.245862608494662   0.980970198659172   1.0
F15   F   0.014764092338687   0.594282357876892   0.988455534045201   1.0
F16   F   0.044679292350097   0.125020116330425   0.466798409363193   1.0
N17   N   0.799677560067892   0.575508461605175   0.534117082272566   1.0
Pb18   Pb   0.104494304623927   0.168592195910151   0.997141225431484   1.0




# HOIP entry ID:                    0942
# Khazana ID:                       2792
# Organic cation source:            C.C.Stoumpos et al., J. Am. Chem. Soc. 137, 6804 (2015)
# Label:                            Isopropylammonium Lead Fluoride
# Material class:                   Hybrid organic-inorganic perovskite ( MC_ino )
# Geometry class:                   Bulk crystalline materials ( GC_cry )
# Organic cation chemical formula:  (CH3)2CHNH3
# Number of atom types:             5
# Total number of atoms:            18
# Atom types:                       C H N  Pb F
# Number of each atom:              3 10 1  1 3
# Bandgap, HSE06 (eV):              5.565
# Bandgap, GGA (eV):                4.2766
# Kpoint for VBM:                   0.5, 0.5, 0.5
# Kpoint for CBM:                   -0.2857, -0.4286, 0.3125
# Dielectric constant, electronic:  2.9795
# Dielectric constant, ionic:       3.5242
# Dielectric constant, total:       6.5037
# Refractive index:                 1.7261
# Atomization energy (eV/atom):     -4.7756
# Relative energy1 (eV/atom):       -0.2604
# Relative energy2 (eV/atom):       0.2919
# Volume of the unit cell (A^3):    142.16
# Density (g/cm^3):                 3.7883
# Tool:                             VASP
# Pseudopotential:                  PAW
# Note:                             ENCUT=400eV, k-spacing_relax=0.20/Angstrom, k-spacing_bandgap=0.15/Angstrom
# Created by:                       C.Kim, T.D.Huan, S.Krishnan, R. Ramprasad