data_1
_audit_creation_method   'Generated by vasp2cif'
_cell_length_a    5.07565602585
_cell_length_b    4.75999339728
_cell_length_c    6.19989640105
_cell_angle_alpha    90.4955421995
_cell_angle_beta    96.0039717071
_cell_angle_gamma    79.7360992397

_symmetry_space_group_name_H-M    'P 1'
loop_
_atom_site_label
_atom_site_type_symbol
_atom_site_fract_x
_atom_site_fract_y
_atom_site_fract_z
_atom_site_occupancy
C1   C   0.646225992283689   0.717201794560118   0.600923465043252   1.0
C2   C   0.472227142275955   0.510420655485987   0.662110637207412   1.0
C3   C   0.314782163315542   0.613390818845609   0.850985931803301   1.0
H4   H   0.448122070947271   0.633430380022716   0.996987867641231   1.0
H5   H   0.178374169908835   0.471082004502833   0.884689895731668   1.0
H6   H   0.199946494278507   0.825255298213797   0.806634449084214   1.0
H7   H   0.360481200199402   0.404529565061417   0.333697868098213   1.0
H8   H   0.592275005479323   0.297086620346150   0.689762571535873   1.0
H9   H   0.803560068419785   0.730477529051818   0.731124877964419   1.0
H10   H   0.736343914700193   0.651384410580064   0.453430737463449   1.0
H11   H   0.523179479306222   0.927799721395047   0.569888880378159   1.0
H12   H   0.143282776025117   0.347470217803412   0.496918475541939   1.0
H13   H   0.158337282176504   0.688037042326492   0.436222348196466   1.0
F14   F   0.985440747143677   0.065378256583266   0.463552403621144   1.0
F15   F   0.863427989153251   0.584538191834888   0.147503357355411   1.0
F16   F   0.424488331636169   0.118052248074555   0.156670144987253   1.0
N17   N   0.271717743158824   0.488133001668238   0.469382247198723   1.0
Pb18   Pb   0.873637429591717   0.084852243643574   0.094773841147905   1.0




# HOIP entry ID:                    0943
# Khazana ID:                       2793
# Organic cation source:            C.C.Stoumpos et al., J. Am. Chem. Soc. 137, 6804 (2015)
# Label:                            Isopropylammonium Lead Fluoride
# Material class:                   Hybrid organic-inorganic perovskite ( MC_ino )
# Geometry class:                   Bulk crystalline materials ( GC_cry )
# Organic cation chemical formula:  (CH3)2CHNH3
# Number of atom types:             5
# Total number of atoms:            18
# Atom types:                       C H N  Pb F
# Number of each atom:              3 10 1  1 3
# Bandgap, HSE06 (eV):              5.7285
# Bandgap, GGA (eV):                4.3266
# Kpoint for VBM:                   0.5, 0.5, 0.5
# Kpoint for CBM:                   -0.25, 0.2778, 0.5
# Dielectric constant, electronic:  2.8759
# Dielectric constant, ionic:       3.8496
# Dielectric constant, total:       6.7255
# Refractive index:                 1.6958
# Atomization energy (eV/atom):     -4.7912
# Relative energy1 (eV/atom):       -0.276
# Relative energy2 (eV/atom):       0.2764
# Volume of the unit cell (A^3):    146.58
# Density (g/cm^3):                 3.6741
# Tool:                             VASP
# Pseudopotential:                  PAW
# Note:                             ENCUT=400eV, k-spacing_relax=0.20/Angstrom, k-spacing_bandgap=0.15/Angstrom
# Created by:                       C.Kim, T.D.Huan, S.Krishnan, R. Ramprasad