data_1
_audit_creation_method   'Generated by vasp2cif'
_cell_length_a    6.29152226512
_cell_length_b    4.79018000339
_cell_length_c    4.94376320224
_cell_angle_alpha    100.299151433
_cell_angle_beta    85.3867250151
_cell_angle_gamma    93.263814596

_symmetry_space_group_name_H-M    'P 1'
loop_
_atom_site_label
_atom_site_type_symbol
_atom_site_fract_x
_atom_site_fract_y
_atom_site_fract_z
_atom_site_occupancy
C1   C   0.575029665034239   0.805755693736517   0.272739735650313   1.0
C2   C   0.598686998693506   0.558049671154566   0.416913724229098   1.0
C3   C   0.798496880514738   0.589398150826632   0.573324302996842   1.0
H4   H   0.941002028467031   0.608875730740860   0.437392648800629   1.0
H5   H   0.811535534589559   0.415238776262417   0.684790542810589   1.0
H6   H   0.788494130426236   0.787591515762344   0.720201587483067   1.0
H7   H   0.271516610080247   0.487518778247176   0.538051191980109   1.0
H8   H   0.586622524031948   0.358990060981246   0.271733413969430   1.0
H9   H   0.685994483749226   0.790742106052218   0.091829435973626   1.0
H10   H   0.414065741969298   0.806867201745647   0.209814279401230   1.0
H11   H   0.608176474150208   0.003666347691131   0.412832672292137   1.0
H12   H   0.430508283864160   0.411390080825632   0.756193758349762   1.0
H13   H   0.399019333531811   0.757654606342312   0.741981698329914   1.0
F14   F   0.419482156785796   0.125858190782627   0.908558730351588   1.0
F15   F   0.110569243238311   0.622792386602343   0.041127185645472   1.0
F16   F   0.117649942700369   0.133417885204621   0.480501107895908   1.0
N17   N   0.411959458558819   0.556113495457462   0.626834894673951   1.0
Pb18   Pb   0.055250509614434   0.119149321584208   0.015579089166251   1.0




# HOIP entry ID:                    0944
# Khazana ID:                       2794
# Organic cation source:            C.C.Stoumpos et al., J. Am. Chem. Soc. 137, 6804 (2015)
# Label:                            Isopropylammonium Lead Fluoride
# Material class:                   Hybrid organic-inorganic perovskite ( MC_ino )
# Geometry class:                   Bulk crystalline materials ( GC_cry )
# Organic cation chemical formula:  (CH3)2CHNH3
# Number of atom types:             5
# Total number of atoms:            18
# Atom types:                       C H N  Pb F
# Number of each atom:              3 10 1  1 3
# Bandgap, HSE06 (eV):              5.7067
# Bandgap, GGA (eV):                4.3805
# Kpoint for VBM:                   0.5, 0.5, 0.5
# Kpoint for CBM:                   0.4167, 0.3125, 0.3125
# Dielectric constant, electronic:  2.9039
# Dielectric constant, ionic:       6.0232
# Dielectric constant, total:       8.9271
# Refractive index:                 1.7041
# Atomization energy (eV/atom):     -4.7883
# Relative energy1 (eV/atom):       -0.2731
# Relative energy2 (eV/atom):       0.2792
# Volume of the unit cell (A^3):    145.98
# Density (g/cm^3):                 3.6892
# Tool:                             VASP
# Pseudopotential:                  PAW
# Note:                             ENCUT=400eV, k-spacing_relax=0.20/Angstrom, k-spacing_bandgap=0.15/Angstrom
# Created by:                       C.Kim, T.D.Huan, S.Krishnan, R. Ramprasad