data_1
_audit_creation_method   'Generated by vasp2cif'
_cell_length_a    4.09003074402
_cell_length_b    4.6928284017
_cell_length_c    8.58153719344
_cell_angle_alpha    111.72136214
_cell_angle_beta    91.0968593264
_cell_angle_gamma    113.77371346

_symmetry_space_group_name_H-M    'P 1'
loop_
_atom_site_label
_atom_site_type_symbol
_atom_site_fract_x
_atom_site_fract_y
_atom_site_fract_z
_atom_site_occupancy
C1   C   0.666855347845452   0.966144354792757   0.589531196406265   1.0
C2   C   0.616097351304633   0.633084916524796   0.596484623049188   1.0
C3   C   0.481000411879113   0.627695742984974   0.759791285947043   1.0
H4   H   0.700669764375217   0.833092629839405   0.866112605897649   1.0
H5   H   0.413432233627312   0.391285257114572   0.774364696622796   1.0
H6   H   0.250862270689534   0.689622772023811   0.772705087541042   1.0
H7   H   0.535717740338084   0.318162348357420   0.339290321085823   1.0
H8   H   0.871919673687394   0.614689979675692   0.598164982687845   1.0
H9   H   0.718950123828617   0.972158311747110   0.466973891388077   1.0
H10   H   0.418798023265707   0.993547165577010   0.610946217199524   1.0
H11   H   0.886102323725797   0.175499039202353   0.692919728891355   1.0
H12   H   0.242969209158371   0.105388018200727   0.432056955224393   1.0
H13   H   0.181087900408701   0.401377944791727   0.383486899804517   1.0
F14   F   0.016640553251069   0.645759459650041   0.340614852483309   1.0
F15   F   0.266608403243015   0.169552013514051   0.012250428380046   1.0
F16   F   0.637623405298179   0.920920934110624   0.187533345838711   1.0
N17   N   0.371986857014351   0.342389482493818   0.429374420447424   1.0
Pb18   Pb   0.979258407059502   0.574679629399055   0.064358461104796   1.0




# HOIP entry ID:                    0945
# Khazana ID:                       2795
# Organic cation source:            C.C.Stoumpos et al., J. Am. Chem. Soc. 137, 6804 (2015)
# Label:                            Isopropylammonium Lead Fluoride
# Material class:                   Hybrid organic-inorganic perovskite ( MC_ino )
# Geometry class:                   Bulk crystalline materials ( GC_cry )
# Organic cation chemical formula:  (CH3)2CHNH3
# Number of atom types:             5
# Total number of atoms:            18
# Atom types:                       C H N  Pb F
# Number of each atom:              3 10 1  1 3
# Bandgap, HSE06 (eV):              5.9904
# Bandgap, GGA (eV):                4.5563
# Kpoint for VBM:                   0.4211, 0.4211, 0.4211
# Kpoint for CBM:                   0, -0.45, 0.4167
# Dielectric constant, electronic:  2.9907
# Dielectric constant, ionic:       9.757
# Dielectric constant, total:       12.7478
# Refractive index:                 1.7294
# Atomization energy (eV/atom):     -4.7756
# Relative energy1 (eV/atom):       -0.2604
# Relative energy2 (eV/atom):       0.292
# Volume of the unit cell (A^3):    137.26
# Density (g/cm^3):                 3.9236
# Tool:                             VASP
# Pseudopotential:                  PAW
# Note:                             ENCUT=400eV, k-spacing_relax=0.20/Angstrom, k-spacing_bandgap=0.15/Angstrom
# Created by:                       C.Kim, T.D.Huan, S.Krishnan, R. Ramprasad