data_1
_audit_creation_method   'Generated by vasp2cif'
_cell_length_a    7.39643112163
_cell_length_b    3.8893971696
_cell_length_c    5.37522069648
_cell_angle_alpha    104.107765233
_cell_angle_beta    85.4726071657
_cell_angle_gamma    99.0688153343

_symmetry_space_group_name_H-M    'P 1'
loop_
_atom_site_label
_atom_site_type_symbol
_atom_site_fract_x
_atom_site_fract_y
_atom_site_fract_z
_atom_site_occupancy
C1   C   0.319576206339472   0.269697496511910   0.748573311105342   1.0
C2   C   0.411622650134917   0.996713218785745   0.549095427909538   1.0
C3   C   0.274834579289678   0.791449669911217   0.348229478856018   1.0
H4   H   0.139721777871465   0.734034008439589   0.438228961805903   1.0
H5   H   0.316290331878321   0.541407334940636   0.238601675961403   1.0
H6   H   0.260493233276449   0.959298050267514   0.216788769495522   1.0
H7   H   0.693059847893911   0.184930255019205   0.532947690195249   1.0
H8   H   0.465023113781998   0.821723238848478   0.645643031653614   1.0
H9   H   0.229806958748468   0.390484298363704   0.654683989769791   1.0
H10   H   0.233937442191189   0.129870008426146   0.878535438171719   1.0
H11   H   0.417996169634111   0.470649705191107   0.862196152511460   1.0
H12   H   0.613179950302749   0.971333990712573   0.255598956589558   1.0
H13   H   0.575207934419848   0.388376745495383   0.362636854815325   1.0
F14   F   0.631113652413684   0.561964534996478   0.076838788272462   1.0
F15   F   0.945334859168844   0.208168554950714   0.229685243202732   1.0
F16   F   0.813650635920160   0.974675199245033   0.701938349424672   1.0
N17   N   0.581770694021974   0.158573340868244   0.420984301766032   1.0
Pb18   Pb   0.926739962712767   0.604170349026393   0.944723578493569   1.0




# HOIP entry ID:                    0946
# Khazana ID:                       2796
# Organic cation source:            C.C.Stoumpos et al., J. Am. Chem. Soc. 137, 6804 (2015)
# Label:                            Isopropylammonium Lead Fluoride
# Material class:                   Hybrid organic-inorganic perovskite ( MC_ino )
# Geometry class:                   Bulk crystalline materials ( GC_cry )
# Organic cation chemical formula:  (CH3)2CHNH3
# Number of atom types:             5
# Total number of atoms:            18
# Atom types:                       C H N  Pb F
# Number of each atom:              3 10 1  1 3
# Bandgap, HSE06 (eV):              5.7321
# Bandgap, GGA (eV):                4.3551
# Kpoint for VBM:                   0.1, 0.5, 0
# Kpoint for CBM:                   0.1, 0, 0.5
# Dielectric constant, electronic:  2.8114
# Dielectric constant, ionic:       5.8903
# Dielectric constant, total:       8.7017
# Refractive index:                 1.6767
# Atomization energy (eV/atom):     -4.7728
# Relative energy1 (eV/atom):       -0.2576
# Relative energy2 (eV/atom):       0.2948
# Volume of the unit cell (A^3):    147.96
# Density (g/cm^3):                 3.6398
# Tool:                             VASP
# Pseudopotential:                  PAW
# Note:                             ENCUT=400eV, k-spacing_relax=0.20/Angstrom, k-spacing_bandgap=0.15/Angstrom
# Created by:                       C.Kim, T.D.Huan, S.Krishnan, R. Ramprasad