data_1
_audit_creation_method   'Generated by vasp2cif'
_cell_length_a    5.69811203006
_cell_length_b    4.38146909298
_cell_length_c    6.54375322036
_cell_angle_alpha    83.8118083547
_cell_angle_beta    83.7775809967
_cell_angle_gamma    66.9050626075

_symmetry_space_group_name_H-M    'P 1'
loop_
_atom_site_label
_atom_site_type_symbol
_atom_site_fract_x
_atom_site_fract_y
_atom_site_fract_z
_atom_site_occupancy
C1   C   0.594669579772688   0.289567734544206   0.315677307983451   1.0
C2   C   0.616194575532093   0.953492630635042   0.420379665423068   1.0
C3   C   0.859381301512639   0.775070069527855   0.531222057848778   1.0
H4   H   0.027335108999100   0.739132399931229   0.424988429973447   1.0
H5   H   0.867319775635730   0.536492536674010   0.605010609991820   1.0
H6   H   0.864546244892988   0.934299057951477   0.647086926373759   1.0
H7   H   0.231493333135840   0.075534934205938   0.497221285095229   1.0
H8   H   0.594107171209077   0.809651237067845   0.305800411929835   1.0
H9   H   0.735047971052069   0.359299934046588   0.374855264937775   1.0
H10   H   0.631652141490127   0.278073975318386   0.148709634112203   1.0
H11   H   0.404946243401848   0.481073532467123   0.344328669021563   1.0
H12   H   0.409756482625248   0.774760507740729   0.664023767013826   1.0
H13   H   0.380997145382226   0.165830815067085   0.679968409543597   1.0
F14   F   0.409410956815073   0.441310830259091   0.828975488798099   1.0
F15   F   0.975565341066147   0.180679665393497   0.844100532734040   1.0
F16   F   0.177187554482576   0.077494747166193   0.221738906407468   1.0
N17   N   0.393682120713196   0.994571650311488   0.576934885872837   1.0
Pb18   Pb   0.029606952281172   0.572983741692249   0.019747746939210   1.0




# HOIP entry ID:                    0947
# Khazana ID:                       2797
# Organic cation source:            C.C.Stoumpos et al., J. Am. Chem. Soc. 137, 6804 (2015)
# Label:                            Isopropylammonium Lead Fluoride
# Material class:                   Hybrid organic-inorganic perovskite ( MC_ino )
# Geometry class:                   Bulk crystalline materials ( GC_cry )
# Organic cation chemical formula:  (CH3)2CHNH3
# Number of atom types:             5
# Total number of atoms:            18
# Atom types:                       C H N  Pb F
# Number of each atom:              3 10 1  1 3
# Bandgap, HSE06 (eV):              5.832
# Bandgap, GGA (eV):                4.4076
# Kpoint for VBM:                   0.5, 0.5, 0.5
# Kpoint for CBM:                   0.5, 0, 0.5
# Dielectric constant, electronic:  2.7854
# Dielectric constant, ionic:       3.5703
# Dielectric constant, total:       6.3557
# Refractive index:                 1.669
# Atomization energy (eV/atom):     -4.7631
# Relative energy1 (eV/atom):       -0.2479
# Relative energy2 (eV/atom):       0.3044
# Volume of the unit cell (A^3):    149.01
# Density (g/cm^3):                 3.6142
# Tool:                             VASP
# Pseudopotential:                  PAW
# Note:                             ENCUT=400eV, k-spacing_relax=0.20/Angstrom, k-spacing_bandgap=0.15/Angstrom
# Created by:                       C.Kim, T.D.Huan, S.Krishnan, R. Ramprasad