data_1
_audit_creation_method   'Generated by vasp2cif'
_cell_length_a    7.48621335765
_cell_length_b    3.89460820061
_cell_length_c    5.62824928972
_cell_angle_alpha    92.0849872064
_cell_angle_beta    87.4555498316
_cell_angle_gamma    114.781738492

_symmetry_space_group_name_H-M    'P 1'
loop_
_atom_site_label
_atom_site_type_symbol
_atom_site_fract_x
_atom_site_fract_y
_atom_site_fract_z
_atom_site_occupancy
C1   C   0.634338400183877   0.374300649810547   0.246915650051932   1.0
C2   C   0.587328253251428   0.138753133354074   0.470898887448430   1.0
C3   C   0.768777453211837   0.186481006213215   0.606628105601608   1.0
H4   H   0.869350725124130   0.100376579629072   0.501499849595222   1.0
H5   H   0.727598605747206   0.013273113484030   0.765468297112196   1.0
H6   H   0.850656628155398   0.482599906463285   0.660237977797152   1.0
H7   H   0.317690758359776   0.173107419159878   0.553414988868390   1.0
H8   H   0.502234461932158   0.844877026824004   0.417134864343906   1.0
H9   H   0.750415264104045   0.656851211589161   0.275564649085954   1.0
H10   H   0.681831949501303   0.229858522816792   0.105882823805539   1.0
H11   H   0.504828880482441   0.396537399099938   0.183589985825569   1.0
H12   H   0.411048340039541   0.038713074964782   0.780688103886499   1.0
H13   H   0.501893420545550   0.488648773573864   0.716035159215860   1.0
F14   F   0.402946127201957   0.711070782208406   0.965622474124344   1.0
F15   F   0.065198275175192   0.946265176076019   0.831063919780855   1.0
F16   F   0.165063295381836   0.056183948622688   0.335308942924767   1.0
N17   N   0.447629651208274   0.223044819805560   0.639453536522235   1.0
Pb18   Pb   0.082239510394235   0.465007456304702   0.087221784009461   1.0




# HOIP entry ID:                    0948
# Khazana ID:                       2798
# Organic cation source:            C.C.Stoumpos et al., J. Am. Chem. Soc. 137, 6804 (2015)
# Label:                            Isopropylammonium Lead Fluoride
# Material class:                   Hybrid organic-inorganic perovskite ( MC_ino )
# Geometry class:                   Bulk crystalline materials ( GC_cry )
# Organic cation chemical formula:  (CH3)2CHNH3
# Number of atom types:             5
# Total number of atoms:            18
# Atom types:                       C H N  Pb F
# Number of each atom:              3 10 1  1 3
# Bandgap, HSE06 (eV):              5.4677
# Bandgap, GGA (eV):                4.137
# Kpoint for VBM:                   0.5, 0.5, 0.5
# Kpoint for CBM:                   -0.4, 0, 0.4286
# Dielectric constant, electronic:  2.775
# Dielectric constant, ionic:       4.1634
# Dielectric constant, total:       6.9384
# Refractive index:                 1.6658
# Atomization energy (eV/atom):     -4.7847
# Relative energy1 (eV/atom):       -0.2695
# Relative energy2 (eV/atom):       0.2829
# Volume of the unit cell (A^3):    148.81
# Density (g/cm^3):                 3.619
# Tool:                             VASP
# Pseudopotential:                  PAW
# Note:                             ENCUT=400eV, k-spacing_relax=0.20/Angstrom, k-spacing_bandgap=0.15/Angstrom
# Created by:                       C.Kim, T.D.Huan, S.Krishnan, R. Ramprasad