data_1
_audit_creation_method   'Generated by vasp2cif'
_cell_length_a    5.62359035791
_cell_length_b    3.85910073035
_cell_length_c    7.43066732311
_cell_angle_alpha    102.944497056
_cell_angle_beta    85.4568152627
_cell_angle_gamma    112.481736393

_symmetry_space_group_name_H-M    'P 1'
loop_
_atom_site_label
_atom_site_type_symbol
_atom_site_fract_x
_atom_site_fract_y
_atom_site_fract_z
_atom_site_occupancy
C1   C   0.276721888517235   0.528223145623698   0.288546775984297   1.0
C2   C   0.456921436519104   0.442568740083183   0.398376621540310   1.0
C3   C   0.671383078998188   0.390377505297750   0.270872644768484   1.0
H4   H   0.594518808542519   0.229704862706118   0.134210210603380   1.0
H5   H   0.775669329673565   0.247577302964019   0.322006682527373   1.0
H6   H   0.807665246258745   0.673733624293643   0.254949292134528   1.0
H7   H   0.442612742278860   0.878087602288884   0.631941229740658   1.0
H8   H   0.345766446053810   0.191167277293994   0.453439199246494   1.0
H9   H   0.386316962505404   0.708790481736982   0.193930577856849   1.0
H10   H   0.151378803642765   0.255238833248687   0.205816886173505   1.0
H11   H   0.154835857270019   0.652870079654630   0.376521475719574   1.0
H12   H   0.615293459201117   0.638180100259280   0.668467521717606   1.0
H13   H   0.735396499441578   0.974785254105190   0.547481820139856   1.0
F14   F   0.954342947953503   0.421428131146917   0.602676115634534   1.0
F15   F   0.773711875614407   0.922828000754337   0.914946198043015   1.0
F16   F   0.326944694246751   0.181037560170143   0.787727200111639   1.0
N17   N   0.568012439387034   0.748568103777658   0.568497862833452   1.0
Pb18   Pb   0.064047483895368   0.586753394594832   0.899681685224250   1.0




# HOIP entry ID:                    0949
# Khazana ID:                       2799
# Organic cation source:            C.C.Stoumpos et al., J. Am. Chem. Soc. 137, 6804 (2015)
# Label:                            Isopropylammonium Lead Fluoride
# Material class:                   Hybrid organic-inorganic perovskite ( MC_ino )
# Geometry class:                   Bulk crystalline materials ( GC_cry )
# Organic cation chemical formula:  (CH3)2CHNH3
# Number of atom types:             5
# Total number of atoms:            18
# Atom types:                       C H N  Pb F
# Number of each atom:              3 10 1  1 3
# Bandgap, HSE06 (eV):              6.0077
# Bandgap, GGA (eV):                4.6216
# Kpoint for VBM:                   0.5, 0.5, 0.5
# Kpoint for CBM:                   -0.4286, 0, 0.0833
# Dielectric constant, electronic:  2.8399
# Dielectric constant, ionic:       5.2366
# Dielectric constant, total:       8.0765
# Refractive index:                 1.6852
# Atomization energy (eV/atom):     -4.776
# Relative energy1 (eV/atom):       -0.2608
# Relative energy2 (eV/atom):       0.2916
# Volume of the unit cell (A^3):    145.21
# Density (g/cm^3):                 3.7088
# Tool:                             VASP
# Pseudopotential:                  PAW
# Note:                             ENCUT=400eV, k-spacing_relax=0.20/Angstrom, k-spacing_bandgap=0.15/Angstrom
# Created by:                       C.Kim, T.D.Huan, S.Krishnan, R. Ramprasad