data_1
_audit_creation_method   'Generated by vasp2cif'
_cell_length_a    8.07046758075
_cell_length_b    3.98507660939
_cell_length_c    4.75718318106
_cell_angle_alpha    68.4026798205
_cell_angle_beta    80.6430963326
_cell_angle_gamma    76.5625748902

_symmetry_space_group_name_H-M    'P 1'
loop_
_atom_site_label
_atom_site_type_symbol
_atom_site_fract_x
_atom_site_fract_y
_atom_site_fract_z
_atom_site_occupancy
C1   C   0.546995716923824   0.887236251241688   0.232019155491090   1.0
C2   C   0.544019873834472   0.915707768825643   0.542802024010652   1.0
C3   C   0.710886840878799   0.022716083515474   0.564013271919440   1.0
H4   H   0.802217235370633   0.771230082484997   0.662117220504726   1.0
H5   H   0.701771757147090   0.192585407244407   0.700635191490481   1.0
H6   H   0.765523758868974   0.164861905159949   0.337790450031592   1.0
H7   H   0.364326152098322   0.266494340312862   0.765572252188156   1.0
H8   H   0.529636447475926   0.660068767721369   0.724578283777408   1.0
H9   H   0.426793649528570   0.840569520377358   0.193223043891055   1.0
H10   H   0.569736405726188   0.147548968263582   0.064961702563314   1.0
H11   H   0.650948317224082   0.673681477001884   0.198285722350038   1.0
H12   H   0.359245431540673   0.400903104212707   0.388791301091983   1.0
H13   H   0.279159908445570   0.038905000986527   0.608000161781828   1.0
F14   F   0.298529991587438   0.534580723170762   0.990297968620678   1.0
F15   F   0.972087919896573   0.258313380510085   0.828785016611053   1.0
F16   F   0.140426925091222   0.905851963141860   0.410251894233991   1.0
N17   N   0.378702300963408   0.175682553459300   0.583241810631789   1.0
Pb18   Pb   0.019651367398322   0.584082702369520   0.162063528810800   1.0




# HOIP entry ID:                    0950
# Khazana ID:                       2800
# Organic cation source:            C.C.Stoumpos et al., J. Am. Chem. Soc. 137, 6804 (2015)
# Label:                            Isopropylammonium Lead Fluoride
# Material class:                   Hybrid organic-inorganic perovskite ( MC_ino )
# Geometry class:                   Bulk crystalline materials ( GC_cry )
# Organic cation chemical formula:  (CH3)2CHNH3
# Number of atom types:             5
# Total number of atoms:            18
# Atom types:                       C H N  Pb F
# Number of each atom:              3 10 1  1 3
# Bandgap, HSE06 (eV):              6.076
# Bandgap, GGA (eV):                4.643
# Kpoint for VBM:                   -0.3, 0.5, 0.2
# Kpoint for CBM:                   0.1, 0, 0.5
# Dielectric constant, electronic:  2.9808
# Dielectric constant, ionic:       8.3329
# Dielectric constant, total:       11.3137
# Refractive index:                 1.7265
# Atomization energy (eV/atom):     -4.7732
# Relative energy1 (eV/atom):       -0.2579
# Relative energy2 (eV/atom):       0.2944
# Volume of the unit cell (A^3):    137.86
# Density (g/cm^3):                 3.9065
# Tool:                             VASP
# Pseudopotential:                  PAW
# Note:                             ENCUT=400eV, k-spacing_relax=0.20/Angstrom, k-spacing_bandgap=0.15/Angstrom
# Created by:                       C.Kim, T.D.Huan, S.Krishnan, R. Ramprasad