data_1
_audit_creation_method   'Generated by vasp2cif'
_cell_length_a    5.29811732639
_cell_length_b    3.84372290167
_cell_length_c    7.53082700188
_cell_angle_alpha    75.2687067547
_cell_angle_beta    87.3892894113
_cell_angle_gamma    102.313563458

_symmetry_space_group_name_H-M    'P 1'
loop_
_atom_site_label
_atom_site_type_symbol
_atom_site_fract_x
_atom_site_fract_y
_atom_site_fract_z
_atom_site_occupancy
C1   C   0.478443312817699   0.524626388724354   0.683580768192815   1.0
C2   C   0.422177377071568   0.389621167836958   0.513192513849373   1.0
C3   C   0.290788021998841   0.621359710732364   0.367193350839191   1.0
H4   H   0.149920219751755   0.725103513475547   0.435610937559110   1.0
H5   H   0.191858646965356   0.444556640998851   0.287528204681838   1.0
H6   H   0.422444706480506   0.853595939768535   0.268424345848217   1.0
H7   H   0.661914497208907   0.200395570459680   0.338444304305730   1.0
H8   H   0.299737581486147   0.112543706504656   0.557269926388175   1.0
H9   H   0.488022654619749   0.297682251341740   0.801334191729287   1.0
H10   H   0.662910437729617   0.727501520759406   0.661681018067825   1.0
H11   H   0.327532974749644   0.652181518638991   0.719470683072084   1.0
H12   H   0.780114614072271   0.622012432610484   0.352336903460211   1.0
H13   H   0.788707981192223   0.264266985568459   0.535520858565886   1.0
F14   F   0.546805833755606   0.467608698444313   0.060117623749590   1.0
F15   F   0.915661784479595   0.017406176618986   0.192762837546373   1.0
F16   F   0.922486995163220   0.204530594264880   0.749269419707081   1.0
N17   N   0.679927427767381   0.359323170015036   0.430095872316740   1.0
Pb18   Pb   0.972624932689850   0.645814013236541   0.970656240120402   1.0




# HOIP entry ID:                    0951
# Khazana ID:                       2801
# Organic cation source:            C.C.Stoumpos et al., J. Am. Chem. Soc. 137, 6804 (2015)
# Label:                            Isopropylammonium Lead Fluoride
# Material class:                   Hybrid organic-inorganic perovskite ( MC_ino )
# Geometry class:                   Bulk crystalline materials ( GC_cry )
# Organic cation chemical formula:  (CH3)2CHNH3
# Number of atom types:             5
# Total number of atoms:            18
# Atom types:                       C H N  Pb F
# Number of each atom:              3 10 1  1 3
# Bandgap, HSE06 (eV):              6.0612
# Bandgap, GGA (eV):                4.6883
# Kpoint for VBM:                   0.5, 0.5, 0.5
# Kpoint for CBM:                   0, 0, 0.4167
# Dielectric constant, electronic:  2.8704
# Dielectric constant, ionic:       5.6293
# Dielectric constant, total:       8.4997
# Refractive index:                 1.6942
# Atomization energy (eV/atom):     -4.7634
# Relative energy1 (eV/atom):       -0.2482
# Relative energy2 (eV/atom):       0.3041
# Volume of the unit cell (A^3):    144.1
# Density (g/cm^3):                 3.7373
# Tool:                             VASP
# Pseudopotential:                  PAW
# Note:                             ENCUT=400eV, k-spacing_relax=0.20/Angstrom, k-spacing_bandgap=0.15/Angstrom
# Created by:                       C.Kim, T.D.Huan, S.Krishnan, R. Ramprasad