data_1
_audit_creation_method   'Generated by vasp2cif'
_cell_length_a    5.60920370784
_cell_length_b    4.82256809512
_cell_length_c    4.78739039046
_cell_angle_alpha    82.5436688876
_cell_angle_beta    100.542826658
_cell_angle_gamma    99.8521869932

_symmetry_space_group_name_H-M    'P 1'
loop_
_atom_site_label
_atom_site_type_symbol
_atom_site_fract_x
_atom_site_fract_y
_atom_site_fract_z
_atom_site_occupancy
F1   F   0.579908355889849   0.883358531397363   0.966649217966712   1.0
F2   F   0.933591759769641   0.930261694762663   0.523422823210417   1.0
F3   F   0.936273068882848   0.447241264472339   0.971382109596647   1.0
H4   H   0.489336448712535   0.694108141813011   0.263980796379023   1.0
H5   H   0.770919586109763   0.348467839660188   0.358233872473960   1.0
H6   H   0.653179348557750   0.676466377530261   0.582352694564477   1.0
H7   H   0.143842495465250   0.376944735500921   0.474777582955284   1.0
H8   H   0.341240951995872   0.408963511978257   0.810028602656210   1.0
H9   H   0.229136361874488   0.710062835568891   0.615273610097240   1.0
H10   H   0.468301560438221   0.217427936559282   0.217660654939301   1.0
H11   H   0.574675878452723   0.151355050950706   0.593154132860207   1.0
C12   C   0.287891827592354   0.512272760343450   0.598198287156855   1.0
C13   C   0.586416860300659   0.299834565328219   0.404049409988787   1.0
Pb14   Pb   0.999579705059645   0.953596883355367   0.027352097442368   1.0
N15   N   0.508609691001439   0.566125657586632   0.456977039902590   1.0




# HOIP entry ID:                    0952
# Khazana ID:                       2802
# Organic cation source:            B.Saparov et al., Chem. Rev. 116, 4558 (2016)
# Label:                            Dimethylammonium Lead Fluoride
# Material class:                   Hybrid organic-inorganic perovskite ( MC_ino )
# Geometry class:                   Bulk crystalline materials ( GC_cry )
# Organic cation chemical formula:  (CH3)2NH2
# Number of atom types:             5
# Total number of atoms:            15
# Atom types:                       C H N  Pb F
# Number of each atom:              2 8 1  1 3
# Bandgap, HSE06 (eV):              5.5091
# Bandgap, GGA (eV):                4.2043
# Kpoint for VBM:                   0.5, 0.5, 0.5
# Kpoint for CBM:                   0.5, 0, 0
# Dielectric constant, electronic:  2.9502
# Dielectric constant, ionic:       6.2377
# Dielectric constant, total:       9.1879
# Refractive index:                 1.7176
# Atomization energy (eV/atom):     -4.7069
# Relative energy1 (eV/atom):       -0.2681
# Relative energy2 (eV/atom):       0.3947
# Volume of the unit cell (A^3):    124.79
# Density (g/cm^3):                 4.129
# Tool:                             VASP
# Pseudopotential:                  PAW
# Note:                             ENCUT=400eV, k-spacing_relax=0.20/Angstrom, k-spacing_bandgap=0.15/Angstrom
# Created by:                       C.Kim, T.D.Huan, S.Krishnan, R. Ramprasad