data_1
_audit_creation_method   'Generated by vasp2cif'
_cell_length_a    5.12049619649
_cell_length_b    4.91407069159
_cell_length_c    5.09976786099
_cell_angle_alpha    83.7478761779
_cell_angle_beta    78.7608866517
_cell_angle_gamma    76.170356991

_symmetry_space_group_name_H-M    'P 1'
loop_
_atom_site_label
_atom_site_type_symbol
_atom_site_fract_x
_atom_site_fract_y
_atom_site_fract_z
_atom_site_occupancy
F1   F   0.038021480769991   0.968683511862260   0.424245570358877   1.0
F2   F   0.588172779772130   0.032807239028109   0.987117009341439   1.0
F3   F   0.979088335223800   0.479139406266867   0.013435731267222   1.0
H4   H   0.380669242473395   0.768888325100768   0.371726977097993   1.0
H5   H   0.262250841896275   0.355026867899468   0.268102343409112   1.0
H6   H   0.662544059360435   0.557920102488858   0.210315388279213   1.0
H7   H   0.533690015476154   0.549205101637511   0.798906572126199   1.0
H8   H   0.831863382953657   0.382071832170048   0.587676079110452   1.0
H9   H   0.752537400445284   0.754661371608854   0.593680787236067   1.0
H10   H   0.220992407861424   0.396526402316013   0.617855508161306   1.0
H11   H   0.510294925953659   0.154294298428880   0.457362454623258   1.0
C12   C   0.670764320543775   0.569403840018190   0.610205319843239   1.0
C13   C   0.365378755214550   0.352038646051085   0.433848550493984   1.0
Pb14   Pb   0.048496877070406   0.973388371206056   0.954003076864240   1.0
N15   N   0.519505174985056   0.579464683917003   0.386058631787478   1.0




# HOIP entry ID:                    0954
# Khazana ID:                       2804
# Organic cation source:            B.Saparov et al., Chem. Rev. 116, 4558 (2016)
# Label:                            Dimethylammonium Lead Fluoride
# Material class:                   Hybrid organic-inorganic perovskite ( MC_ino )
# Geometry class:                   Bulk crystalline materials ( GC_cry )
# Organic cation chemical formula:  (CH3)2NH2
# Number of atom types:             5
# Total number of atoms:            15
# Atom types:                       C H N  Pb F
# Number of each atom:              2 8 1  1 3
# Bandgap, HSE06 (eV):              5.3093
# Bandgap, GGA (eV):                4.0521
# Kpoint for VBM:                   0.5, 0.5, 0.5
# Kpoint for CBM:                   0.375, 0.375, 0.5
# Dielectric constant, electronic:  3.002
# Dielectric constant, ionic:       6.4186
# Dielectric constant, total:       9.4206
# Refractive index:                 1.7326
# Atomization energy (eV/atom):     -4.7049
# Relative energy1 (eV/atom):       -0.2661
# Relative energy2 (eV/atom):       0.3967
# Volume of the unit cell (A^3):    121.95
# Density (g/cm^3):                 4.2252
# Tool:                             VASP
# Pseudopotential:                  PAW
# Note:                             ENCUT=400eV, k-spacing_relax=0.20/Angstrom, k-spacing_bandgap=0.15/Angstrom
# Created by:                       C.Kim, T.D.Huan, S.Krishnan, R. Ramprasad