data_1
_audit_creation_method   'Generated by vasp2cif'
_cell_length_a    4.64063029406
_cell_length_b    3.66260665334
_cell_length_c    7.41077704294
_cell_angle_alpha    94.5810645323
_cell_angle_beta    81.5556281469
_cell_angle_gamma    96.6158077873

_symmetry_space_group_name_H-M    'P 1'
loop_
_atom_site_label
_atom_site_type_symbol
_atom_site_fract_x
_atom_site_fract_y
_atom_site_fract_z
_atom_site_occupancy
F1   F   0.045153416260768   0.167330638630236   0.185508843920585   1.0
F2   F   0.558379469279437   0.859381085139214   0.932660052556387   1.0
F3   F   0.160893349184321   0.107143806653018   0.721242386316107   1.0
H4   H   0.851484741063491   0.320846102026873   0.440124795843575   1.0
H5   H   0.314762724847900   0.391671556841977   0.555675873739547   1.0
H6   H   0.416883331652615   0.819150799367550   0.613538068113307   1.0
H7   H   0.482761878825215   0.465921358920812   0.238393582341848   1.0
H8   H   0.274297812139683   0.833810715809839   0.325672855817116   1.0
H9   H   0.662680065252600   0.908992461472094   0.294437641573282   1.0
H10   H   0.711856020371396   0.331566053171991   0.679589389701147   1.0
H11   H   0.904918638813410   0.732954965580252   0.581403089282007   1.0
C12   C   0.475032269286626   0.711287041014550   0.330472071845520   1.0
C13   C   0.758891772480248   0.486238093004149   0.557788003165081   1.0
Pb14   Pb   0.040694322015866   0.651212784975460   0.966696288149577   1.0
N15   N   0.476070188526402   0.603892537392067   0.520847057634841   1.0




# HOIP entry ID:                    0955
# Khazana ID:                       2805
# Organic cation source:            B.Saparov et al., Chem. Rev. 116, 4558 (2016)
# Label:                            Dimethylammonium Lead Fluoride
# Material class:                   Hybrid organic-inorganic perovskite ( MC_ino )
# Geometry class:                   Bulk crystalline materials ( GC_cry )
# Organic cation chemical formula:  (CH3)2NH2
# Number of atom types:             5
# Total number of atoms:            15
# Atom types:                       C H N  Pb F
# Number of each atom:              2 8 1  1 3
# Bandgap, HSE06 (eV):              5.7976
# Bandgap, GGA (eV):                4.4622
# Kpoint for VBM:                   0.5, 0.4091, 0.1
# Kpoint for CBM:                   0.5, 0.0455, 0.5
# Dielectric constant, electronic:  2.9154
# Dielectric constant, ionic:       5.745
# Dielectric constant, total:       8.6604
# Refractive index:                 1.7075
# Atomization energy (eV/atom):     -4.7039
# Relative energy1 (eV/atom):       -0.2651
# Relative energy2 (eV/atom):       0.3977
# Volume of the unit cell (A^3):    123.51
# Density (g/cm^3):                 4.1718
# Tool:                             VASP
# Pseudopotential:                  PAW
# Note:                             ENCUT=400eV, k-spacing_relax=0.20/Angstrom, k-spacing_bandgap=0.15/Angstrom
# Created by:                       C.Kim, T.D.Huan, S.Krishnan, R. Ramprasad