data_1
_audit_creation_method   'Generated by vasp2cif'
_cell_length_a    4.57843001059
_cell_length_b    3.6104057717
_cell_length_c    7.47417136188
_cell_angle_alpha    83.5161810766
_cell_angle_beta    82.4129731259
_cell_angle_gamma    86.9773701753

_symmetry_space_group_name_H-M    'P 1'
loop_
_atom_site_label
_atom_site_type_symbol
_atom_site_fract_x
_atom_site_fract_y
_atom_site_fract_z
_atom_site_occupancy
F1   F   0.967946669110251   0.104335715231787   0.808593438208874   1.0
F2   F   0.428649976679148   0.829185398829027   0.054109677879737   1.0
F3   F   0.850014458953924   0.000735229962631   0.286540184019560   1.0
H4   H   0.155460692604635   0.184298041996100   0.537664297475535   1.0
H5   H   0.704312691909626   0.252205270128176   0.488774234657344   1.0
H6   H   0.647622889183864   0.685095753075434   0.408078480969522   1.0
H7   H   0.478800323254494   0.349103974168538   0.784608491871905   1.0
H8   H   0.703575999061348   0.736335133544888   0.703008870383236   1.0
H9   H   0.317204082207687   0.781066324363253   0.697583080991031   1.0
H10   H   0.341108675031774   0.227634133874639   0.309311249154287   1.0
H11   H   0.149474945968344   0.620384585025937   0.400878010966414   1.0
C12   C   0.508758093861960   0.592109040205349   0.685731306253388   1.0
C13   C   0.277335763979705   0.364871083155865   0.431284521807645   1.0
Pb14   Pb   0.941903470256383   0.586420022519672   0.036035598610304   1.0
N15   N   0.552054963491503   0.470272147352208   0.498909700870250   1.0




# HOIP entry ID:                    0956
# Khazana ID:                       2806
# Organic cation source:            B.Saparov et al., Chem. Rev. 116, 4558 (2016)
# Label:                            Dimethylammonium Lead Fluoride
# Material class:                   Hybrid organic-inorganic perovskite ( MC_ino )
# Geometry class:                   Bulk crystalline materials ( GC_cry )
# Organic cation chemical formula:  (CH3)2NH2
# Number of atom types:             5
# Total number of atoms:            15
# Atom types:                       C H N  Pb F
# Number of each atom:              2 8 1  1 3
# Bandgap, HSE06 (eV):              5.8584
# Bandgap, GGA (eV):                4.507
# Kpoint for VBM:                   0.4444, -0.3636, 0.2
# Kpoint for CBM:                   0.5, 0.0455, 0.5
# Dielectric constant, electronic:  2.9525
# Dielectric constant, ionic:       6.1767
# Dielectric constant, total:       9.1292
# Refractive index:                 1.7183
# Atomization energy (eV/atom):     -4.6998
# Relative energy1 (eV/atom):       -0.261
# Relative energy2 (eV/atom):       0.4018
# Volume of the unit cell (A^3):    121.59
# Density (g/cm^3):                 4.2377
# Tool:                             VASP
# Pseudopotential:                  PAW
# Note:                             ENCUT=400eV, k-spacing_relax=0.20/Angstrom, k-spacing_bandgap=0.15/Angstrom
# Created by:                       C.Kim, T.D.Huan, S.Krishnan, R. Ramprasad