data_1
_audit_creation_method   'Generated by vasp2cif'
_cell_length_a    5.10060633546
_cell_length_b    5.12708213257
_cell_length_c    5.12863065307
_cell_angle_alpha    87.2384913074
_cell_angle_beta    103.472742103
_cell_angle_gamma    77.8256585152

_symmetry_space_group_name_H-M    'P 1'
loop_
_atom_site_label
_atom_site_type_symbol
_atom_site_fract_x
_atom_site_fract_y
_atom_site_fract_z
_atom_site_occupancy
C1   C   0.320348664324925   0.408023093383960   0.599652073367615   1.0
C2   C   0.511483986169289   0.528475548599815   0.480395974627285   1.0
H3   H   0.735655950758385   0.493345914061287   0.191307043266015   1.0
H4   H   0.723633103712565   0.830220978317470   0.509927727069424   1.0
H5   H   0.324878653337798   0.204576776889624   0.551729465131537   1.0
H6   H   0.109978674809916   0.525921758670876   0.520877614328761   1.0
H7   H   0.368387131891431   0.413754086230121   0.815936272727320   1.0
H8   H   0.533629340937402   0.808805027809051   0.744753261521772   1.0
H9   H   0.552934370271473   0.250163117127485   0.216636524371829   1.0
F10   F   0.999004656660532   0.984801674633779   0.576029590967117   1.0
F11   F   0.998058232594353   0.426694169943282   0.018744094564717   1.0
F12   F   0.568766589954684   0.960227632439405   0.045193765929049   1.0
N13   N   0.592790857360029   0.428356627484888   0.273159079965360   1.0
N14   N   0.577685565372242   0.748909856959692   0.570179108359831   1.0
Pb15   Pb   0.067704221845006   0.958003737449353   0.045358403802311   1.0




# HOIP entry ID:                    0957
# Khazana ID:                       2807
# Organic cation source:            C.C.Stoumpos et al., J. Am. Chem. Soc. 137, 6804 (2015)
# Label:                            Acetamidinium Lead Fluoride
# Material class:                   Hybrid organic-inorganic perovskite ( MC_ino )
# Geometry class:                   Bulk crystalline materials ( GC_cry )
# Organic cation chemical formula:  CH3C(NH2)2
# Number of atom types:             5
# Total number of atoms:            15
# Atom types:                       C H N  Pb F
# Number of each atom:              2 7 2  1 3
# Bandgap, HSE06 (eV):              5.2195
# Bandgap, GGA (eV):                3.8182
# Kpoint for VBM:                   0.5, 0.5, 0.5
# Kpoint for CBM:                   0.5, 0.5, 0.5
# Dielectric constant, electronic:  3.131
# Dielectric constant, ionic:       6.8885
# Dielectric constant, total:       10.0194
# Refractive index:                 1.7694
# Atomization energy (eV/atom):     -5.0153
# Relative energy1 (eV/atom):       -0.1504
# Relative energy2 (eV/atom):       0.5124
# Volume of the unit cell (A^3):    126.83
# Density (g/cm^3):                 4.2328
# Tool:                             VASP
# Pseudopotential:                  PAW
# Note:                             ENCUT=400eV, k-spacing_relax=0.20/Angstrom, k-spacing_bandgap=0.15/Angstrom
# Created by:                       C.Kim, T.D.Huan, S.Krishnan, R. Ramprasad