data_1
_audit_creation_method   'Generated by vasp2cif'
_cell_length_a    5.09972235729
_cell_length_b    5.13483597985
_cell_length_c    5.12119573295
_cell_angle_alpha    92.743606205
_cell_angle_beta    102.233889554
_cell_angle_gamma    103.436718793

_symmetry_space_group_name_H-M    'P 1'
loop_
_atom_site_label
_atom_site_type_symbol
_atom_site_fract_x
_atom_site_fract_y
_atom_site_fract_z
_atom_site_occupancy
C1   C   0.686916808673705   0.505226876973128   0.519256040661511   1.0
C2   C   0.496100758660082   0.624226023151999   0.640330082488968   1.0
H3   H   0.284333970104968   0.593804916574940   0.942563141816201   1.0
H4   H   0.271585641959889   0.912839171811813   0.605941889990676   1.0
H5   H   0.896848088686857   0.579506714236894   0.640005882353563   1.0
H6   H   0.685441935507572   0.556891435016063   0.317106901937034   1.0
H7   H   0.635505767082068   0.288687339618390   0.520504886565925   1.0
H8   H   0.454390482709767   0.888263605423909   0.362407749559269   1.0
H9   H   0.474418732248517   0.359497619903874   0.920484134878923   1.0
F10   F   0.008765119550589   0.085195374915900   0.539825968273250   1.0
F11   F   0.009179939181560   0.526871750514607   0.097187581166496   1.0
F12   F   0.438940484382912   0.058867482261316   0.071932064564111   1.0
N13   N   0.430188509519836   0.533943952189307   0.860837904744690   1.0
N14   N   0.414553327090308   0.831429332754896   0.540654552067376   1.0
Pb15   Pb   0.939900434641268   0.058798404652850   0.069971218931947   1.0




# HOIP entry ID:                    0958
# Khazana ID:                       2808
# Organic cation source:            C.C.Stoumpos et al., J. Am. Chem. Soc. 137, 6804 (2015)
# Label:                            Acetamidinium Lead Fluoride
# Material class:                   Hybrid organic-inorganic perovskite ( MC_ino )
# Geometry class:                   Bulk crystalline materials ( GC_cry )
# Organic cation chemical formula:  CH3C(NH2)2
# Number of atom types:             5
# Total number of atoms:            15
# Atom types:                       C H N  Pb F
# Number of each atom:              2 7 2  1 3
# Bandgap, HSE06 (eV):              5.2269
# Bandgap, GGA (eV):                3.8508
# Kpoint for VBM:                   0.5, 0.5, 0.5
# Kpoint for CBM:                   0.5, 0.5, 0.5
# Dielectric constant, electronic:  3.1309
# Dielectric constant, ionic:       6.6691
# Dielectric constant, total:       9.8
# Refractive index:                 1.7694
# Atomization energy (eV/atom):     -5.0151
# Relative energy1 (eV/atom):       -0.1502
# Relative energy2 (eV/atom):       0.5126
# Volume of the unit cell (A^3):    126.81
# Density (g/cm^3):                 4.2334
# Tool:                             VASP
# Pseudopotential:                  PAW
# Note:                             ENCUT=400eV, k-spacing_relax=0.20/Angstrom, k-spacing_bandgap=0.15/Angstrom
# Created by:                       C.Kim, T.D.Huan, S.Krishnan, R. Ramprasad