data_1
_audit_creation_method   'Generated by vasp2cif'
_cell_length_a    5.05642637545
_cell_length_b    5.22286953506
_cell_length_c    5.07773563284
_cell_angle_alpha    82.3389753312
_cell_angle_beta    105.858694345
_cell_angle_gamma    88.8442950961

_symmetry_space_group_name_H-M    'P 1'
loop_
_atom_site_label
_atom_site_type_symbol
_atom_site_fract_x
_atom_site_fract_y
_atom_site_fract_z
_atom_site_occupancy
C1   C   0.625924977990223   0.495938859402372   0.385639128447167   1.0
C2   C   0.496014438904488   0.630452777415883   0.561298786273476   1.0
H3   H   0.231640216625010   0.604575341176293   0.809012372190878   1.0
H4   H   0.515325459321829   0.952613012934023   0.747309099279384   1.0
H5   H   0.614174741989117   0.621076744597289   0.193432689983212   1.0
H6   H   0.534947456715436   0.316118808499816   0.341077152164516   1.0
H7   H   0.843211681992905   0.455256253112616   0.491877471620498   1.0
H8   H   0.727682411626688   0.935732122689046   0.533562386685588   1.0
H9   H   0.265444934127395   0.336046348429477   0.648141094455369   1.0
F10   F   0.056092413712570   0.059427821813685   0.601241796992262   1.0
F11   F   0.051226242051868   0.629425506279503   0.059857099450618   1.0
F12   F   0.581659325752341   0.061064752001542   0.050855315548944   1.0
N13   N   0.322161673392266   0.516952647626255   0.683064755020013   1.0
N14   N   0.558199047415563   0.872584237763704   0.588634504507091   1.0
Pb15   Pb   0.064994978382224   0.072984766258536   0.104856347380974   1.0




# HOIP entry ID:                    0959
# Khazana ID:                       2809
# Organic cation source:            C.C.Stoumpos et al., J. Am. Chem. Soc. 137, 6804 (2015)
# Label:                            Acetamidinium Lead Fluoride
# Material class:                   Hybrid organic-inorganic perovskite ( MC_ino )
# Geometry class:                   Bulk crystalline materials ( GC_cry )
# Organic cation chemical formula:  CH3C(NH2)2
# Number of atom types:             5
# Total number of atoms:            15
# Atom types:                       C H N  Pb F
# Number of each atom:              2 7 2  1 3
# Bandgap, HSE06 (eV):              5.0782
# Bandgap, GGA (eV):                3.7441
# Kpoint for VBM:                   0.5, 0.5, 0.5
# Kpoint for CBM:                   0.5, 0.5, 0.5
# Dielectric constant, electronic:  3.1488
# Dielectric constant, ionic:       7.3478
# Dielectric constant, total:       10.4966
# Refractive index:                 1.7745
# Atomization energy (eV/atom):     -5.0154
# Relative energy1 (eV/atom):       -0.1505
# Relative energy2 (eV/atom):       0.5123
# Volume of the unit cell (A^3):    127.62
# Density (g/cm^3):                 4.2066
# Tool:                             VASP
# Pseudopotential:                  PAW
# Note:                             ENCUT=400eV, k-spacing_relax=0.20/Angstrom, k-spacing_bandgap=0.15/Angstrom
# Created by:                       C.Kim, T.D.Huan, S.Krishnan, R. Ramprasad