data_1
_audit_creation_method   'Generated by vasp2cif'
_cell_length_a    4.62690261814
_cell_length_b    3.49971344066
_cell_length_c    8.11463260029
_cell_angle_alpha    86.6845322187
_cell_angle_beta    90.921152343
_cell_angle_gamma    96.3670738144

_symmetry_space_group_name_H-M    'P 1'
loop_
_atom_site_label
_atom_site_type_symbol
_atom_site_fract_x
_atom_site_fract_y
_atom_site_fract_z
_atom_site_occupancy
C1   C   0.423265452979753   0.898992979639145   0.631923760069640   1.0
C2   C   0.560360022189434   0.804762362290186   0.476593272283082   1.0
H3   H   0.267958145555792   0.050103712015917   0.322084717772115   1.0
H4   H   0.519947896940037   0.806337051175952   0.225558380631044   1.0
H5   H   0.347890039794357   0.631119021636595   0.700634920607322   1.0
H6   H   0.579916422670097   0.060236491914244   0.710051406947642   1.0
H7   H   0.238016852632088   0.058376572370123   0.605611499218337   1.0
H8   H   0.879659523669290   0.519585322787476   0.382991493946460   1.0
H9   H   0.869077525540333   0.533023333150821   0.599714186626126   1.0
F10   F   0.516777174578081   0.568486487940742   0.022777935142177   1.0
F11   F   0.986211600013373   0.278456243466096   0.220791243747534   1.0
F12   F   0.950672072046592   0.331177966909589   0.789097771482437   1.0
N13   N   0.439096887831751   0.888322263999196   0.332829360083191   1.0
N14   N   0.799680377805093   0.628609720385631   0.485853026916944   1.0
Pb15   Pb   0.022720005753926   0.796710470318269   0.996917024525993   1.0




# HOIP entry ID:                    0960
# Khazana ID:                       2810
# Organic cation source:            C.C.Stoumpos et al., J. Am. Chem. Soc. 137, 6804 (2015)
# Label:                            Acetamidinium Lead Fluoride
# Material class:                   Hybrid organic-inorganic perovskite ( MC_ino )
# Geometry class:                   Bulk crystalline materials ( GC_cry )
# Organic cation chemical formula:  CH3C(NH2)2
# Number of atom types:             5
# Total number of atoms:            15
# Atom types:                       C H N  Pb F
# Number of each atom:              2 7 2  1 3
# Bandgap, HSE06 (eV):              5.6072
# Bandgap, GGA (eV):                4.2711
# Kpoint for VBM:                   0.5, 0.5, 0.5
# Kpoint for CBM:                   0.5, 0, 0.5
# Dielectric constant, electronic:  3.0075
# Dielectric constant, ionic:       5.0429
# Dielectric constant, total:       8.0504
# Refractive index:                 1.7342
# Atomization energy (eV/atom):     -5.0274
# Relative energy1 (eV/atom):       -0.1625
# Relative energy2 (eV/atom):       0.5003
# Volume of the unit cell (A^3):    130.36
# Density (g/cm^3):                 4.1182
# Tool:                             VASP
# Pseudopotential:                  PAW
# Note:                             ENCUT=400eV, k-spacing_relax=0.20/Angstrom, k-spacing_bandgap=0.15/Angstrom
# Created by:                       C.Kim, T.D.Huan, S.Krishnan, R. Ramprasad