data_1
_audit_creation_method   'Generated by vasp2cif'
_cell_length_a    8.4964711774
_cell_length_b    3.57073444747
_cell_length_c    4.56029855845
_cell_angle_alpha    100.824124218
_cell_angle_beta    87.5261962835
_cell_angle_gamma    105.362260369

_symmetry_space_group_name_H-M    'P 1'
loop_
_atom_site_label
_atom_site_type_symbol
_atom_site_fract_x
_atom_site_fract_y
_atom_site_fract_z
_atom_site_occupancy
C1   C   0.632899078986536   0.116662709450138   0.569960554646801   1.0
C2   C   0.489145599922834   0.811983124684470   0.420370334594152   1.0
H3   H   0.327884263354601   0.847234103880651   0.766864388801660   1.0
H4   H   0.261027972176027   0.453852255437096   0.476483975282195   1.0
H5   H   0.738775166243016   0.995650735105808   0.555319906521759   1.0
H6   H   0.665968815141365   0.369886383145870   0.458524255601773   1.0
H7   H   0.609855066397209   0.208733612977280   0.803155099964891   1.0
H8   H   0.408619749769105   0.437058362129151   0.038589710589207   1.0
H9   H   0.618680713544503   0.723600631271796   0.046517515932663   1.0
F10   F   0.029458688348722   0.208235056457445   0.566676309028168   1.0
F11   F   0.228469311053240   0.086881457340419   0.043336973792386   1.0
F12   F   0.813771965803316   0.822652167876798   0.992828470544703   1.0
N13   N   0.353963560590189   0.686993009395614   0.568862560959763   1.0
N14   N   0.504166550726178   0.657927925100164   0.137752286081341   1.0
Pb15   Pb   0.008573497943237   0.469338465747333   0.096867657658445   1.0




# HOIP entry ID:                    0961
# Khazana ID:                       2811
# Organic cation source:            C.C.Stoumpos et al., J. Am. Chem. Soc. 137, 6804 (2015)
# Label:                            Acetamidinium Lead Fluoride
# Material class:                   Hybrid organic-inorganic perovskite ( MC_ino )
# Geometry class:                   Bulk crystalline materials ( GC_cry )
# Organic cation chemical formula:  CH3C(NH2)2
# Number of atom types:             5
# Total number of atoms:            15
# Atom types:                       C H N  Pb F
# Number of each atom:              2 7 2  1 3
# Bandgap, HSE06 (eV):              5.8048
# Bandgap, GGA (eV):                4.2622
# Kpoint for VBM:                   0.1, 0.3333, 0.3889
# Kpoint for CBM:                   0.5, 0.5, 0
# Dielectric constant, electronic:  2.9799
# Dielectric constant, ionic:       5.5817
# Dielectric constant, total:       8.5617
# Refractive index:                 1.7263
# Atomization energy (eV/atom):     -5.0265
# Relative energy1 (eV/atom):       -0.1616
# Relative energy2 (eV/atom):       0.5012
# Volume of the unit cell (A^3):    131.03
# Density (g/cm^3):                 4.0971
# Tool:                             VASP
# Pseudopotential:                  PAW
# Note:                             ENCUT=400eV, k-spacing_relax=0.20/Angstrom, k-spacing_bandgap=0.15/Angstrom
# Created by:                       C.Kim, T.D.Huan, S.Krishnan, R. Ramprasad