data_1
_audit_creation_method   'Generated by vasp2cif'
_cell_length_a    4.83116299796
_cell_length_b    4.70789365329
_cell_length_c    4.70893474227
_cell_angle_alpha    94.9612802027
_cell_angle_beta    101.765821679
_cell_angle_gamma    87.3060478656

_symmetry_space_group_name_H-M    'P 1'
loop_
_atom_site_label
_atom_site_type_symbol
_atom_site_fract_x
_atom_site_fract_y
_atom_site_fract_z
_atom_site_occupancy
F1   F   0.471893230961478   0.040793176707992   0.985646049318123   1.0
F2   F   0.827465079284088   0.995989942086782   0.536307607010164   1.0
F3   F   0.890526696555459   0.493895770947212   0.959868136313595   1.0
H4   H   0.488846593080600   0.402419618353124   0.200359798422975   1.0
H5   H   0.708414621435915   0.383114313495819   0.515039450020699   1.0
H6   H   0.607207187123533   0.707316745177019   0.407054078616324   1.0
H7   H   0.272902978244521   0.271482597882023   0.599691165222948   1.0
H8   H   0.380143419612189   0.604418956267924   0.784065277259219   1.0
H9   H   0.119295977380116   0.596803850410256   0.458665992219716   1.0
C10   C   0.308037283125889   0.492456223645505   0.573415158124988   1.0
Pb11   Pb   0.971669181237493   0.997429678998005   0.042583576982701   1.0
N12   N   0.540487751958660   0.501439126028276   0.407503710487623   1.0




# HOIP entry ID:                    0962
# Khazana ID:                       2812
# Organic cation source:            T.D.Huan et al., Phys. Rev. B 93,094105(2016)
# Label:                            Methylammonium Lead Fluoride
# Material class:                   Hybrid organic-inorganic perovskite ( MC_ino )
# Geometry class:                   Bulk crystalline materials ( GC_cry )
# Organic cation chemical formula:  CH3NH3
# Number of atom types:             5
# Total number of atoms:            12
# Atom types:                       C H N  Pb F
# Number of each atom:              1 6 1  1 3
# Bandgap, HSE06 (eV):              5.4652
# Bandgap, GGA (eV):                4.2076
# Kpoint for VBM:                   0.5, 0.5, 0.4737
# Kpoint for CBM:                   0.5, 0, 0.0556
# Dielectric constant, electronic:  3.0068
# Dielectric constant, ionic:       5.6624
# Dielectric constant, total:       8.6692
# Refractive index:                 1.734
# Atomization energy (eV/atom):     -4.6556
# Relative energy1 (eV/atom):       -0.2744
# Relative energy2 (eV/atom):       0.5541
# Volume of the unit cell (A^3):    104.41
# Density (g/cm^3):                 4.7119
# Tool:                             VASP
# Pseudopotential:                  PAW
# Note:                             ENCUT=400eV, k-spacing_relax=0.20/Angstrom, k-spacing_bandgap=0.15/Angstrom
# Created by:                       C.Kim, T.D.Huan, S.Krishnan, R. Ramprasad