data_1
_audit_creation_method   'Generated by vasp2cif'
_cell_length_a    4.6064565934
_cell_length_b    4.62492584741
_cell_length_c    5.00433910427
_cell_angle_alpha    90.9559068276
_cell_angle_beta    79.7174260413
_cell_angle_gamma    91.3876922314

_symmetry_space_group_name_H-M    'P 1'
loop_
_atom_site_label
_atom_site_type_symbol
_atom_site_fract_x
_atom_site_fract_y
_atom_site_fract_z
_atom_site_occupancy
F1   F   0.021243685882246   0.010586185026182   0.512658729679806   1.0
F2   F   0.537815585799066   0.004612649584922   0.154239884427250   1.0
F3   F   0.938250020375822   0.503362814461988   0.127755234903471   1.0
H4   H   0.232562089268032   0.344115257911805   0.471675400782639   1.0
H5   H   0.536164601679926   0.489845872212386   0.281879794418257   1.0
H6   H   0.286562025846659   0.707755806998275   0.461419492936874   1.0
H7   H   0.655869795220813   0.276962670596355   0.673497794367096   1.0
H8   H   0.737028377277000   0.655165685248472   0.649331840676988   1.0
H9   H   0.420503153020871   0.527473634163891   0.878353840972626   1.0
C10   C   0.563057737915087   0.490965884064395   0.684580731212135   1.0
Pb11   Pb   0.041118995006808   0.004387576576107   0.024547653909415   1.0
N12   N   0.387813932707671   0.510915963155267   0.461069601713454   1.0




# HOIP entry ID:                    0963
# Khazana ID:                       2813
# Organic cation source:            T.D.Huan et al., Phys. Rev. B 93,094105(2016)
# Label:                            Methylammonium Lead Fluoride
# Material class:                   Hybrid organic-inorganic perovskite ( MC_ino )
# Geometry class:                   Bulk crystalline materials ( GC_cry )
# Organic cation chemical formula:  CH3NH3
# Number of atom types:             5
# Total number of atoms:            12
# Atom types:                       C H N  Pb F
# Number of each atom:              1 6 1  1 3
# Bandgap, HSE06 (eV):              5.4444
# Bandgap, GGA (eV):                4.2224
# Kpoint for VBM:                   0.5, 0.5, 0.5
# Kpoint for CBM:                   -0.0556, 0.0556, 0.5
# Dielectric constant, electronic:  2.9896
# Dielectric constant, ionic:       5.4059
# Dielectric constant, total:       8.3955
# Refractive index:                 1.7291
# Atomization energy (eV/atom):     -4.6593
# Relative energy1 (eV/atom):       -0.2781
# Relative energy2 (eV/atom):       0.5504
# Volume of the unit cell (A^3):    104.86
# Density (g/cm^3):                 4.6916
# Tool:                             VASP
# Pseudopotential:                  PAW
# Note:                             ENCUT=400eV, k-spacing_relax=0.20/Angstrom, k-spacing_bandgap=0.15/Angstrom
# Created by:                       C.Kim, T.D.Huan, S.Krishnan, R. Ramprasad