data_1
_audit_creation_method   'Generated by vasp2cif'
_cell_length_a    4.33973317945
_cell_length_b    3.45761341401
_cell_length_c    6.67205256731
_cell_angle_alpha    84.258592845
_cell_angle_beta    88.7696313245
_cell_angle_gamma    90.0011783194

_symmetry_space_group_name_H-M    'P 1'
loop_
_atom_site_label
_atom_site_type_symbol
_atom_site_fract_x
_atom_site_fract_y
_atom_site_fract_z
_atom_site_occupancy
F1   F   0.995105250739783   0.621462815930023   0.760594525141585   1.0
F2   F   0.483811377487925   0.435665240914744   0.048572489375168   1.0
F3   F   0.976032660584920   0.492657114265953   0.315401618592510   1.0
H4   H   0.269925092836864   0.760879673560368   0.410698747681032   1.0
H5   H   0.659652991877003   0.746375871589358   0.390189321381477   1.0
H6   H   0.466689965969941   0.142221032322332   0.300481729998047   1.0
H7   H   0.501391076686048   0.856851104931408   0.731816277690612   1.0
H8   H   0.714611177734170   0.253078345205680   0.606829056477814   1.0
H9   H   0.304267917565092   0.280222764708483   0.629889380035195   1.0
C10   C   0.500227634108960   0.092390912708410   0.612542042474487   1.0
Pb11   Pb   0.984412744067143   0.102546759387138   0.012570946598054   1.0
N12   N   0.471222110342168   0.922148364476165   0.416733864554054   1.0




# HOIP entry ID:                    0964
# Khazana ID:                       2814
# Organic cation source:            T.D.Huan et al., Phys. Rev. B 93,094105(2016)
# Label:                            Methylammonium Lead Fluoride
# Material class:                   Hybrid organic-inorganic perovskite ( MC_ino )
# Geometry class:                   Bulk crystalline materials ( GC_cry )
# Organic cation chemical formula:  CH3NH3
# Number of atom types:             5
# Total number of atoms:            12
# Atom types:                       C H N  Pb F
# Number of each atom:              1 6 1  1 3
# Bandgap, HSE06 (eV):              5.2157
# Bandgap, GGA (eV):                3.871
# Kpoint for VBM:                   0.5, 0, 0.5
# Kpoint for CBM:                   0.5, 0, 0.5
# Dielectric constant, electronic:  3.0471
# Dielectric constant, ionic:       7.3612
# Dielectric constant, total:       10.4082
# Refractive index:                 1.7456
# Atomization energy (eV/atom):     -4.6283
# Relative energy1 (eV/atom):       -0.247
# Relative energy2 (eV/atom):       0.5815
# Volume of the unit cell (A^3):    99.59
# Density (g/cm^3):                 4.9399
# Tool:                             VASP
# Pseudopotential:                  PAW
# Note:                             ENCUT=400eV, k-spacing_relax=0.20/Angstrom, k-spacing_bandgap=0.15/Angstrom
# Created by:                       C.Kim, T.D.Huan, S.Krishnan, R. Ramprasad