data_1
_audit_creation_method   'Generated by vasp2cif'
_cell_length_a    4.6262199845
_cell_length_b    3.62095075621
_cell_length_c    6.94777846993
_cell_angle_alpha    106.913358917
_cell_angle_beta    84.3669353441
_cell_angle_gamma    71.9796755819

_symmetry_space_group_name_H-M    'P 1'
loop_
_atom_site_label
_atom_site_type_symbol
_atom_site_fract_x
_atom_site_fract_y
_atom_site_fract_z
_atom_site_occupancy
F1   F   0.932292865997795   0.793654588156855   0.231997486564374   1.0
F2   F   0.496717292160277   0.832097272044521   0.945694320766997   1.0
F3   F   0.141903537264852   0.417903850348402   0.723925888605713   1.0
H4   H   0.808569514476588   0.234820472917463   0.443468570998604   1.0
H5   H   0.582072012619477   0.596997329838324   0.672792989138564   1.0
H6   H   0.784179807450911   0.714150179754576   0.499570583329877   1.0
H7   H   0.336878640827535   0.330328829969609   0.360877700850082   1.0
H8   H   0.206587524306485   0.869647746284571   0.506463904068021   1.0
H9   H   0.469382702350195   0.671854568817778   0.269645661075806   1.0
C10   C   0.396270494437225   0.604646811471063   0.404270357339492   1.0
Pb11   Pb   0.945984165031987   0.122563753565387   0.965143934539398   1.0
N12   N   0.657541443076639   0.535464596831503   0.517148602723083   1.0




# HOIP entry ID:                    0965
# Khazana ID:                       2815
# Organic cation source:            T.D.Huan et al., Phys. Rev. B 93,094105(2016)
# Label:                            Methylammonium Lead Fluoride
# Material class:                   Hybrid organic-inorganic perovskite ( MC_ino )
# Geometry class:                   Bulk crystalline materials ( GC_cry )
# Organic cation chemical formula:  CH3NH3
# Number of atom types:             5
# Total number of atoms:            12
# Atom types:                       C H N  Pb F
# Number of each atom:              1 6 1  1 3
# Bandgap, HSE06 (eV):              5.521
# Bandgap, GGA (eV):                4.1714
# Kpoint for VBM:                   -0.2778, 0.4167, 0.3571
# Kpoint for CBM:                   0.5, 0, 0.5
# Dielectric constant, electronic:  2.9574
# Dielectric constant, ionic:       7.5799
# Dielectric constant, total:       10.5373
# Refractive index:                 1.7197
# Atomization energy (eV/atom):     -4.6314
# Relative energy1 (eV/atom):       -0.2502
# Relative energy2 (eV/atom):       0.5783
# Volume of the unit cell (A^3):    103.6
# Density (g/cm^3):                 4.7487
# Tool:                             VASP
# Pseudopotential:                  PAW
# Note:                             ENCUT=400eV, k-spacing_relax=0.20/Angstrom, k-spacing_bandgap=0.15/Angstrom
# Created by:                       C.Kim, T.D.Huan, S.Krishnan, R. Ramprasad