data_1
_audit_creation_method   'Generated by vasp2cif'
_cell_length_a    6.44616977232
_cell_length_b    3.54264985333
_cell_length_c    4.58821157049
_cell_angle_alpha    77.8025814516
_cell_angle_beta    94.9316546278
_cell_angle_gamma    90.4258192726

_symmetry_space_group_name_H-M    'P 1'
loop_
_atom_site_label
_atom_site_type_symbol
_atom_site_fract_x
_atom_site_fract_y
_atom_site_fract_z
_atom_site_occupancy
F1   F   0.190168085735145   0.736026349047187   0.094167527150169   1.0
F2   F   0.906314343002663   0.976744333112073   0.492457499462638   1.0
F3   F   0.668333633980971   0.751391756631897   0.014082308188691   1.0
H4   H   0.382366433743343   0.995898936190954   0.266142388123072   1.0
H5   H   0.621404193714959   0.016701394625237   0.445452736233754   1.0
H6   H   0.521081363034703   0.405147541189173   0.215056695853576   1.0
H7   H   0.351080921921820   0.024471588772464   0.782891773567933   1.0
H8   H   0.490770910775048   0.463132883294428   0.725216307536556   1.0
H9   H   0.242331947033172   0.443077362218212   0.529819317805860   1.0
C10   C   0.383620011080559   0.282184887749494   0.622453538621308   1.0
Pb11   Pb   0.933196957862400   0.262952214441732   0.950906271563433   1.0
N12   N   0.482171198115246   0.164630752727099   0.371923635893133   1.0




# HOIP entry ID:                    0966
# Khazana ID:                       2816
# Organic cation source:            T.D.Huan et al., Phys. Rev. B 93,094105(2016)
# Label:                            Methylammonium Lead Fluoride
# Material class:                   Hybrid organic-inorganic perovskite ( MC_ino )
# Geometry class:                   Bulk crystalline materials ( GC_cry )
# Organic cation chemical formula:  CH3NH3
# Number of atom types:             5
# Total number of atoms:            12
# Atom types:                       C H N  Pb F
# Number of each atom:              1 6 1  1 3
# Bandgap, HSE06 (eV):              5.7203
# Bandgap, GGA (eV):                4.3593
# Kpoint for VBM:                   0.1667, -0.3333, 0.3889
# Kpoint for CBM:                   0, 0, 0.5
# Dielectric constant, electronic:  2.9908
# Dielectric constant, ionic:       7.7514
# Dielectric constant, total:       10.7422
# Refractive index:                 1.7294
# Atomization energy (eV/atom):     -4.6458
# Relative energy1 (eV/atom):       -0.2645
# Relative energy2 (eV/atom):       0.564
# Volume of the unit cell (A^3):    102.03
# Density (g/cm^3):                 4.8218
# Tool:                             VASP
# Pseudopotential:                  PAW
# Note:                             ENCUT=400eV, k-spacing_relax=0.20/Angstrom, k-spacing_bandgap=0.15/Angstrom
# Created by:                       C.Kim, T.D.Huan, S.Krishnan, R. Ramprasad