data_1
_audit_creation_method   'Generated by vasp2cif'
_cell_length_a    5.76792869833
_cell_length_b    4.12948616366
_cell_length_c    6.16677700916
_cell_angle_alpha    47.9613027437
_cell_angle_beta    95.877961395
_cell_angle_gamma    98.8119263623

_symmetry_space_group_name_H-M    'P 1'
loop_
_atom_site_label
_atom_site_type_symbol
_atom_site_fract_x
_atom_site_fract_y
_atom_site_fract_z
_atom_site_occupancy
F1   F   0.252058523871696   0.027105384169985   0.052272945190744   1.0
F2   F   0.928200811293479   0.732320835108901   0.552349123898544   1.0
F3   F   0.729976498591277   0.891416506998759   0.052209015043204   1.0
H4   H   0.647278191809605   0.503088383658948   0.552194983554841   1.0
H5   H   0.393170837049872   0.652495352295773   0.364071762859403   1.0
H6   H   0.393181011386609   0.276067492822463   0.740431918431966   1.0
H7   H   0.548658613781200   0.167025568018964   0.356202781092001   1.0
H8   H   0.549118996086271   0.775542834712617   0.747685137136699   1.0
H9   H   0.280415624109565   0.921941966359668   0.552485080388450   1.0
C10   C   0.462286804437660   0.037785513895663   0.552149011625296   1.0
Pb11   Pb   0.972691867322908   0.405061423754503   0.052383961481475   1.0
N12   N   0.473262220259876   0.394848738203812   0.552214279297417   1.0




# HOIP entry ID:                    0967
# Khazana ID:                       2817
# Organic cation source:            T.D.Huan et al., Phys. Rev. B 93,094105(2016)
# Label:                            Methylammonium Lead Fluoride
# Material class:                   Hybrid organic-inorganic perovskite ( MC_ino )
# Geometry class:                   Bulk crystalline materials ( GC_cry )
# Organic cation chemical formula:  CH3NH3
# Number of atom types:             5
# Total number of atoms:            12
# Atom types:                       C H N  Pb F
# Number of each atom:              1 6 1  1 3
# Bandgap, HSE06 (eV):              4.8755
# Bandgap, GGA (eV):                3.5966
# Kpoint for VBM:                   0.0263, 0.5, 0
# Kpoint for CBM:                   0.5, 0, 0.0455
# Dielectric constant, electronic:  2.8749
# Dielectric constant, ionic:       6.5191
# Dielectric constant, total:       9.394
# Refractive index:                 1.6955
# Atomization energy (eV/atom):     -4.6374
# Relative energy1 (eV/atom):       -0.2561
# Relative energy2 (eV/atom):       0.5724
# Volume of the unit cell (A^3):    107.8
# Density (g/cm^3):                 4.5637
# Tool:                             VASP
# Pseudopotential:                  PAW
# Note:                             ENCUT=400eV, k-spacing_relax=0.20/Angstrom, k-spacing_bandgap=0.15/Angstrom
# Created by:                       C.Kim, T.D.Huan, S.Krishnan, R. Ramprasad