data_1
_audit_creation_method   'Generated by vasp2cif'
_cell_length_a    4.98398613671
_cell_length_b    5.01407332732
_cell_length_c    5.01066611168
_cell_angle_alpha    98.9041353899
_cell_angle_beta    97.9556188872
_cell_angle_gamma    97.6707644914

_symmetry_space_group_name_H-M    'P 1'
loop_
_atom_site_label
_atom_site_type_symbol
_atom_site_fract_x
_atom_site_fract_y
_atom_site_fract_z
_atom_site_occupancy
C1   C   0.301046356550046   0.290488672645729   0.336058518434989   1.0
H2   H   0.046644371277196   0.267855246871939   0.621821376201417   1.0
H3   H   0.043233382867335   0.574674685379406   0.316325704291572   1.0
H4   H   0.596441051466350   0.045447682163783   0.318577590122153   1.0
H5   H   0.594168312821594   0.275487249842513   0.088771347455044   1.0
H6   H   0.278267868992081   0.577773393846698   0.088481822103816   1.0
H7   H   0.278794325730658   0.036601742535211   0.618136949989172   1.0
F8   F   0.751850544597623   0.747047955713654   0.359058585196870   1.0
F9   F   0.754390112810178   0.313450598467291   0.792215076980057   1.0
F10   F   0.310521984471983   0.746137355410816   0.794503127991398   1.0
N11   N   0.193789566176207   0.183021689691721   0.532662347286859   1.0
N12   N   0.193397137573989   0.489627724591912   0.232977474402048   1.0
N13   N   0.507741948135454   0.190616348459571   0.234329625642452   1.0
Pb14   Pb   0.797813036529362   0.793959654379712   0.840140453902201   1.0




# HOIP entry ID:                    0968
# Khazana ID:                       2818
# Organic cation source:            B.Saparov et al., Chem. Rev. 116, 4558 (2016)
# Label:                            Guanidinium Lead Fluoride
# Material class:                   Hybrid organic-inorganic perovskite ( MC_ino )
# Geometry class:                   Bulk crystalline materials ( GC_cry )
# Organic cation chemical formula:  C(NH2)3
# Number of atom types:             5
# Total number of atoms:            14
# Atom types:                       C H N  Pb F
# Number of each atom:              1 6 3  1 3
# Bandgap, HSE06 (eV):              5.7117
# Bandgap, GGA (eV):                4.1478
# Kpoint for VBM:                   0.5, 0.5, 0
# Kpoint for CBM:                   0.5, -0.375, 0.375
# Dielectric constant, electronic:  3.1483
# Dielectric constant, ionic:       7.6799
# Dielectric constant, total:       10.8283
# Refractive index:                 1.7744
# Atomization energy (eV/atom):     -5.0966
# Relative energy1 (eV/atom):       0.0047
# Relative energy2 (eV/atom):       0.7148
# Volume of the unit cell (A^3):    120.97
# Density (g/cm^3):                 4.4514
# Tool:                             VASP
# Pseudopotential:                  PAW
# Note:                             ENCUT=400eV, k-spacing_relax=0.20/Angstrom, k-spacing_bandgap=0.15/Angstrom
# Created by:                       C.Kim, T.D.Huan, S.Krishnan, R. Ramprasad