data_1
_audit_creation_method   'Generated by vasp2cif'
_cell_length_a    8.57305949629
_cell_length_b    3.40790437336
_cell_length_c    4.56647658138
_cell_angle_alpha    79.6744248753
_cell_angle_beta    95.3435149826
_cell_angle_gamma    113.569404551

_symmetry_space_group_name_H-M    'P 1'
loop_
_atom_site_label
_atom_site_type_symbol
_atom_site_fract_x
_atom_site_fract_y
_atom_site_fract_z
_atom_site_occupancy
C1   C   0.468131446510497   0.206114952685155   0.537748615862682   1.0
H2   H   0.357591796083525   0.363061708420617   0.849353555412598   1.0
H3   H   0.577116831037777   0.595666246149165   0.853387486027991   1.0
H4   H   0.623577608321284   0.132239036134635   0.251799111838729   1.0
H5   H   0.723333099283067   0.430655560170607   0.531333620470576   1.0
H6   H   0.224268244771011   0.794482993371396   0.562774943363365   1.0
H7   H   0.319500543568132   0.806774024361374   0.245893982366063   1.0
F8   F   0.959151284693718   0.073974276353034   0.514263811307998   1.0
F9   F   0.192499270123463   0.519412459695197   0.946744449195080   1.0
F10   F   0.744010758422775   0.073391563031102   0.960210282427582   1.0
N11   N   0.468182225609489   0.357478605286246   0.788901435636468   1.0
N12   N   0.318886767392165   0.966466718065739   0.414040091581548   1.0
N13   N   0.615347766789228   0.300488251550220   0.409448796173997   1.0
Pb14   Pb   0.970142357394032   0.808543604725671   0.052109818335275   1.0




# HOIP entry ID:                    0969
# Khazana ID:                       2819
# Organic cation source:            B.Saparov et al., Chem. Rev. 116, 4558 (2016)
# Label:                            Guanidinium Lead Fluoride
# Material class:                   Hybrid organic-inorganic perovskite ( MC_ino )
# Geometry class:                   Bulk crystalline materials ( GC_cry )
# Organic cation chemical formula:  C(NH2)3
# Number of atom types:             5
# Total number of atoms:            14
# Atom types:                       C H N  Pb F
# Number of each atom:              1 6 3  1 3
# Bandgap, HSE06 (eV):              5.5121
# Bandgap, GGA (eV):                4.1789
# Kpoint for VBM:                   0.5, 0.0385, 0.5
# Kpoint for CBM:                   0, 0.0385, 0.5
# Dielectric constant, electronic:  3.1482
# Dielectric constant, ionic:       7.3161
# Dielectric constant, total:       10.4642
# Refractive index:                 1.7743
# Atomization energy (eV/atom):     -5.0928
# Relative energy1 (eV/atom):       0.0085
# Relative energy2 (eV/atom):       0.7187
# Volume of the unit cell (A^3):    120.27
# Density (g/cm^3):                 4.4773
# Tool:                             VASP
# Pseudopotential:                  PAW
# Note:                             ENCUT=400eV, k-spacing_relax=0.20/Angstrom, k-spacing_bandgap=0.15/Angstrom
# Created by:                       C.Kim, T.D.Huan, S.Krishnan, R. Ramprasad