data_1
_audit_creation_method   'Generated by vasp2cif'
_cell_length_a    4.62069791393
_cell_length_b    4.45982026037
_cell_length_c    4.6452103042
_cell_angle_alpha    102.619407212
_cell_angle_beta    100.946719806
_cell_angle_gamma    76.5826659429

_symmetry_space_group_name_H-M    'P 1'
loop_
_atom_site_label
_atom_site_type_symbol
_atom_site_fract_x
_atom_site_fract_y
_atom_site_fract_z
_atom_site_occupancy
F1   F   0.085088368219281   0.048175871628315   0.507255247922555   1.0
F2   F   0.471449346742341   0.973460737754496   0.112342873857410   1.0
F3   F   0.975238023295839   0.460844610456800   0.161581081582016   1.0
H4   H   0.434670287213056   0.366512064376353   0.264537520123459   1.0
H5   H   0.749248689389290   0.475479759686346   0.452101444991441   1.0
H6   H   0.410422222042774   0.738967170654576   0.463621355045726   1.0
H7   H   0.308192350342398   0.260761668731659   0.614233285606251   1.0
Pb8   Pb   0.955056103686507   0.925355791031718   0.954532159447606   1.0
N9   N   0.520857047135230   0.508057767494388   0.455819000468808   1.0
O10   O   0.463517561933367   0.396904558185275   0.705966030954625   1.0




# HOIP entry ID:                    0970
# Khazana ID:                       2820
# Organic cation source:            G.Kieslich et al., Chem. Sci. 6, 3430 (2015)
# Label:                            Hydroxylammonium Lead Fluoride
# Material class:                   Hybrid organic-inorganic perovskite ( MC_ino )
# Geometry class:                   Bulk crystalline materials ( GC_cry )
# Organic cation chemical formula:  OHNH3
# Number of atom types:             5
# Total number of atoms:            10
# Atom types:                        H N O Pb F
# Number of each atom:               4 1  1 3
# Bandgap, HSE06 (eV):              5.9095
# Bandgap, GGA (eV):                4.5267
# Kpoint for VBM:                   0.5, 0.5, 0
# Kpoint for CBM:                   0.0556, 0.0556, 0.5
# Dielectric constant, electronic:  3.1249
# Dielectric constant, ionic:       7.4497
# Dielectric constant, total:       10.5747
# Refractive index:                 1.7678
# Atomization energy (eV/atom):     -4.505
# Relative energy1 (eV/atom):       -0.185
# Relative energy2 (eV/atom):       0.8092
# Volume of the unit cell (A^3):    89.88
# Density (g/cm^3):                 5.51
# Tool:                             VASP
# Pseudopotential:                  PAW
# Note:                             ENCUT=400eV, k-spacing_relax=0.20/Angstrom, k-spacing_bandgap=0.15/Angstrom
# Created by:                       C.Kim, T.D.Huan, S.Krishnan, R. Ramprasad