data_1
_audit_creation_method   'Generated by vasp2cif'
_cell_length_a    4.76183087593
_cell_length_b    3.93332982729
_cell_length_c    5.5247342648
_cell_angle_alpha    111.489581025
_cell_angle_beta    85.3553610719
_cell_angle_gamma    86.3572356807

_symmetry_space_group_name_H-M    'P 1'
loop_
_atom_site_label
_atom_site_type_symbol
_atom_site_fract_x
_atom_site_fract_y
_atom_site_fract_z
_atom_site_occupancy
F1   F   0.957203834742361   0.170442406702867   0.700092943501629   1.0
F2   F   0.492934593352547   0.938476586270031   0.054085901125910   1.0
F3   F   0.982703482717411   0.470331833812910   0.287320705295680   1.0
H4   H   0.496787039857892   0.880618733206427   0.331935953705102   1.0
H5   H   0.683730373994175   0.942846209801841   0.591648747433355   1.0
H6   H   0.332151731488634   0.092380905244515   0.636006981472140   1.0
H7   H   0.242588535025156   0.497526916875304   0.422250052139363   1.0
Pb8   Pb   0.999138203615982   0.817531743071942   0.991148931036443   1.0
N9   N   0.487821635512938   0.890000776717410   0.523919890872098   1.0
O10   O   0.406460569693000   0.551053888296716   0.535369893418314   1.0




# HOIP entry ID:                    0971
# Khazana ID:                       2821
# Organic cation source:            G.Kieslich et al., Chem. Sci. 6, 3430 (2015)
# Label:                            Hydroxylammonium Lead Fluoride
# Material class:                   Hybrid organic-inorganic perovskite ( MC_ino )
# Geometry class:                   Bulk crystalline materials ( GC_cry )
# Organic cation chemical formula:  OHNH3
# Number of atom types:             5
# Total number of atoms:            10
# Atom types:                        H N O Pb F
# Number of each atom:               4 1  1 3
# Bandgap, HSE06 (eV):              5.3311
# Bandgap, GGA (eV):                4.0136
# Kpoint for VBM:                   0.5, 0.5, 0
# Kpoint for CBM:                   0, 0, 0.5
# Dielectric constant, electronic:  2.9636
# Dielectric constant, ionic:       7.1721
# Dielectric constant, total:       10.1357
# Refractive index:                 1.7215
# Atomization energy (eV/atom):     -4.5046
# Relative energy1 (eV/atom):       -0.1846
# Relative energy2 (eV/atom):       0.8096
# Volume of the unit cell (A^3):    95.48
# Density (g/cm^3):                 5.1868
# Tool:                             VASP
# Pseudopotential:                  PAW
# Note:                             ENCUT=400eV, k-spacing_relax=0.20/Angstrom, k-spacing_bandgap=0.15/Angstrom
# Created by:                       C.Kim, T.D.Huan, S.Krishnan, R. Ramprasad