data_1
_audit_creation_method   'Generated by vasp2cif'
_cell_length_a    5.74289354037
_cell_length_b    3.85809159654
_cell_length_c    4.5584457525
_cell_angle_alpha    105.068141143
_cell_angle_beta    98.6360082828
_cell_angle_gamma    68.8799144036

_symmetry_space_group_name_H-M    'P 1'
loop_
_atom_site_label
_atom_site_type_symbol
_atom_site_fract_x
_atom_site_fract_y
_atom_site_fract_z
_atom_site_occupancy
F1   F   0.788711678580089   0.307944695477012   0.188189942444216   1.0
F2   F   0.101027613623781   0.832065522308183   0.575217380701191   1.0
F3   F   0.352486397682119   0.993296959642507   0.127075824071934   1.0
H4   H   0.386066696514438   0.371998535484828   0.567335290005857   1.0
H5   H   0.683964317162308   0.212561185838236   0.479668634753115   1.0
H6   H   0.618939512374705   0.375773918908926   0.855816791729720   1.0
H7   H   0.484984592068015   0.928905270027279   0.859242933194667   1.0
Pb8   Pb   0.048745999508874   0.646874200834630   0.044432981204977   1.0
N9   N   0.567030792001315   0.236483740735431   0.643098708124715   1.0
O10   O   0.596682400484415   0.868035970742928   0.683311513769792   1.0




# HOIP entry ID:                    0972
# Khazana ID:                       2822
# Organic cation source:            G.Kieslich et al., Chem. Sci. 6, 3430 (2015)
# Label:                            Hydroxylammonium Lead Fluoride
# Material class:                   Hybrid organic-inorganic perovskite ( MC_ino )
# Geometry class:                   Bulk crystalline materials ( GC_cry )
# Organic cation chemical formula:  OHNH3
# Number of atom types:             5
# Total number of atoms:            10
# Atom types:                        H N O Pb F
# Number of each atom:               4 1  1 3
# Bandgap, HSE06 (eV):              5.6355
# Bandgap, GGA (eV):                4.2597
# Kpoint for VBM:                   0.3571, 0.4167, 0.5
# Kpoint for CBM:                   0.5, 0, 0.0556
# Dielectric constant, electronic:  3.0592
# Dielectric constant, ionic:       8.5406
# Dielectric constant, total:       11.5998
# Refractive index:                 1.7491
# Atomization energy (eV/atom):     -4.4792
# Relative energy1 (eV/atom):       -0.1592
# Relative energy2 (eV/atom):       0.835
# Volume of the unit cell (A^3):    90.8
# Density (g/cm^3):                 5.4542
# Tool:                             VASP
# Pseudopotential:                  PAW
# Note:                             ENCUT=400eV, k-spacing_relax=0.20/Angstrom, k-spacing_bandgap=0.15/Angstrom
# Created by:                       C.Kim, T.D.Huan, S.Krishnan, R. Ramprasad