data_1
_audit_creation_method   'Generated by vasp2cif'
_cell_length_a    4.7336683494
_cell_length_b    3.8858152386
_cell_length_c    5.45836743485
_cell_angle_alpha    106.296195543
_cell_angle_beta    81.1009231588
_cell_angle_gamma    106.239478814

_symmetry_space_group_name_H-M    'P 1'
loop_
_atom_site_label
_atom_site_type_symbol
_atom_site_fract_x
_atom_site_fract_y
_atom_site_fract_z
_atom_site_occupancy
F1   F   0.839583931913484   0.006134669625182   0.756425394847031   1.0
F2   F   0.419634023525902   0.409435479903785   0.058266480650354   1.0
F3   F   0.846567201625564   0.223094953767434   0.300525810061012   1.0
H4   H   0.553220695797367   0.092829608899894   0.436273210100960   1.0
H5   H   0.427409190539160   0.139591740819916   0.746860834781677   1.0
H6   H   0.165675106228855   0.032617280059361   0.548262739707543   1.0
H7   H   0.334108533929438   0.498622894959743   0.359983774927719   1.0
Pb8   Pb   0.951028709602664   0.633191962589153   0.011253704293243   1.0
N9   N   0.371675649806478   0.999726043169046   0.562914901454512   1.0
O10   O   0.336366957031135   0.616085366206417   0.548633149175992   1.0




# HOIP entry ID:                    0973
# Khazana ID:                       2823
# Organic cation source:            G.Kieslich et al., Chem. Sci. 6, 3430 (2015)
# Label:                            Hydroxylammonium Lead Fluoride
# Material class:                   Hybrid organic-inorganic perovskite ( MC_ino )
# Geometry class:                   Bulk crystalline materials ( GC_cry )
# Organic cation chemical formula:  OHNH3
# Number of atom types:             5
# Total number of atoms:            10
# Atom types:                        H N O Pb F
# Number of each atom:               4 1  1 3
# Bandgap, HSE06 (eV):              5.667
# Bandgap, GGA (eV):                4.3133
# Kpoint for VBM:                   0.5, 0.5, 0
# Kpoint for CBM:                   0.5, 0.0455, 0
# Dielectric constant, electronic:  2.988
# Dielectric constant, ionic:       9.7868
# Dielectric constant, total:       12.7748
# Refractive index:                 1.7286
# Atomization energy (eV/atom):     -4.4854
# Relative energy1 (eV/atom):       -0.1653
# Relative energy2 (eV/atom):       0.8289
# Volume of the unit cell (A^3):    92.21
# Density (g/cm^3):                 5.3708
# Tool:                             VASP
# Pseudopotential:                  PAW
# Note:                             ENCUT=400eV, k-spacing_relax=0.20/Angstrom, k-spacing_bandgap=0.15/Angstrom
# Created by:                       C.Kim, T.D.Huan, S.Krishnan, R. Ramprasad