data_1
_audit_creation_method   'Generated by vasp2cif'
_cell_length_a    5.97208857723
_cell_length_b    3.83228471677
_cell_length_c    4.36379523165
_cell_angle_alpha    87.141998988
_cell_angle_beta    86.5755647377
_cell_angle_gamma    72.3767497531

_symmetry_space_group_name_H-M    'P 1'
loop_
_atom_site_label
_atom_site_type_symbol
_atom_site_fract_x
_atom_site_fract_y
_atom_site_fract_z
_atom_site_occupancy
F1   F   0.699542183727502   0.376740180216316   0.173823249448709   1.0
F2   F   0.228253313788613   0.706413285431225   0.706907722012808   1.0
F3   F   0.285539101101755   0.141854045629422   0.203389062473192   1.0
H4   H   0.392119163733177   0.006267010357163   0.650712764918239   1.0
H5   H   0.577106108441534   0.243311162388551   0.503802502466719   1.0
H6   H   0.512170643266529   0.224078542842413   0.892884407645752   1.0
H7   H   0.695716436837905   0.616436466596447   0.902388840714636   1.0
Pb8   Pb   0.042928824845589   0.759308957135680   0.219550609952854   1.0
N9   N   0.537271465330775   0.089627427984567   0.689917670046320   1.0
O10   O   0.736332758926658   0.765192921418283   0.717613170320732   1.0




# HOIP entry ID:                    0974
# Khazana ID:                       2824
# Organic cation source:            G.Kieslich et al., Chem. Sci. 6, 3430 (2015)
# Label:                            Hydroxylammonium Lead Fluoride
# Material class:                   Hybrid organic-inorganic perovskite ( MC_ino )
# Geometry class:                   Bulk crystalline materials ( GC_cry )
# Organic cation chemical formula:  OHNH3
# Number of atom types:             5
# Total number of atoms:            10
# Atom types:                        H N O Pb F
# Number of each atom:               4 1  1 3
# Bandgap, HSE06 (eV):              5.9018
# Bandgap, GGA (eV):                4.4917
# Kpoint for VBM:                   0.5, 0.0455, 0.5
# Kpoint for CBM:                   0.4286, 0, 0
# Dielectric constant, electronic:  2.9191
# Dielectric constant, ionic:       6.7628
# Dielectric constant, total:       9.6818
# Refractive index:                 1.7085
# Atomization energy (eV/atom):     -4.5202
# Relative energy1 (eV/atom):       -0.2001
# Relative energy2 (eV/atom):       0.7941
# Volume of the unit cell (A^3):    94.96
# Density (g/cm^3):                 5.2152
# Tool:                             VASP
# Pseudopotential:                  PAW
# Note:                             ENCUT=400eV, k-spacing_relax=0.20/Angstrom, k-spacing_bandgap=0.15/Angstrom
# Created by:                       C.Kim, T.D.Huan, S.Krishnan, R. Ramprasad