data_1
_audit_creation_method   'Generated by vasp2cif'
_cell_length_a    5.26567922035
_cell_length_b    3.92335786415
_cell_length_c    4.75905658191
_cell_angle_alpha    115.838616799
_cell_angle_beta    92.3386251237
_cell_angle_gamma    79.8948177999

_symmetry_space_group_name_H-M    'P 1'
loop_
_atom_site_label
_atom_site_type_symbol
_atom_site_fract_x
_atom_site_fract_y
_atom_site_fract_z
_atom_site_occupancy
F1   F   0.830885141273981   0.139659115499448   0.735513420985882   1.0
F2   F   0.256873914814399   0.675266673050793   0.974657904193023   1.0
F3   F   0.049844844999903   0.392825109735270   0.338706055272013   1.0
H4   H   0.240569431588270   0.086970043858408   0.499610904279365   1.0
H5   H   0.514683706284671   0.131838840846704   0.704002659786454   1.0
H6   H   0.269436321727369   0.961747312220389   0.805363843584402   1.0
H7   H   0.332194768307325   0.466759494966183   0.344192879456813   1.0
Pb8   Pb   0.824751782064460   0.803439235430901   0.102522452092657   1.0
N9   N   0.365182316824019   0.977458682773495   0.625669784668837   1.0
O10   O   0.490487772115642   0.585175491618408   0.432130095680520   1.0




# HOIP entry ID:                    0975
# Khazana ID:                       2825
# Organic cation source:            G.Kieslich et al., Chem. Sci. 6, 3430 (2015)
# Label:                            Hydroxylammonium Lead Fluoride
# Material class:                   Hybrid organic-inorganic perovskite ( MC_ino )
# Geometry class:                   Bulk crystalline materials ( GC_cry )
# Organic cation chemical formula:  OHNH3
# Number of atom types:             5
# Total number of atoms:            10
# Atom types:                        H N O Pb F
# Number of each atom:               4 1  1 3
# Bandgap, HSE06 (eV):              6.3502
# Bandgap, GGA (eV):                4.8538
# Kpoint for VBM:                   0.5, 0.0455, 0.5
# Kpoint for CBM:                   0.5, 0.1364, 0.1
# Dielectric constant, electronic:  3.1649
# Dielectric constant, ionic:       8.8938
# Dielectric constant, total:       12.0588
# Refractive index:                 1.779
# Atomization energy (eV/atom):     -4.4914
# Relative energy1 (eV/atom):       -0.1714
# Relative energy2 (eV/atom):       0.8229
# Volume of the unit cell (A^3):    87.05
# Density (g/cm^3):                 5.6891
# Tool:                             VASP
# Pseudopotential:                  PAW
# Note:                             ENCUT=400eV, k-spacing_relax=0.20/Angstrom, k-spacing_bandgap=0.15/Angstrom
# Created by:                       C.Kim, T.D.Huan, S.Krishnan, R. Ramprasad