data_1
_audit_creation_method   'Generated by vasp2cif'
_cell_length_a    5.24080772776
_cell_length_b    3.63370948739
_cell_length_c    5.01812250117
_cell_angle_alpha    80.7158212203
_cell_angle_beta    85.362168782
_cell_angle_gamma    72.6241809533

_symmetry_space_group_name_H-M    'P 1'
loop_
_atom_site_label
_atom_site_type_symbol
_atom_site_fract_x
_atom_site_fract_y
_atom_site_fract_z
_atom_site_occupancy
F1   F   0.280006257165113   0.157456144209164   0.130912975114391   1.0
F2   F   0.911221386033212   0.794765678214524   0.392501641948129   1.0
F3   F   0.696863019514552   0.464024322189211   0.927155914411799   1.0
H4   H   0.564003727888462   0.344206052819331   0.263296619501652   1.0
H5   H   0.679584354082031   0.549277823611277   0.487175804547768   1.0
H6   H   0.494122956216358   0.250447704875263   0.800411920552939   1.0
H7   H   0.365738937695660   0.747600477777802   0.376414364053872   1.0
Pb8   Pb   0.029703039502152   0.810579966643836   0.922021495627853   1.0
N9   N   0.512001628478487   0.486834412464383   0.428811721825490   1.0
O10   O   0.408084693423888   0.239567417195268   0.634177542416118   1.0




# HOIP entry ID:                    0976
# Khazana ID:                       2826
# Organic cation source:            G.Kieslich et al., Chem. Sci. 6, 3430 (2015)
# Label:                            Hydroxylammonium Lead Fluoride
# Material class:                   Hybrid organic-inorganic perovskite ( MC_ino )
# Geometry class:                   Bulk crystalline materials ( GC_cry )
# Organic cation chemical formula:  OHNH3
# Number of atom types:             5
# Total number of atoms:            10
# Atom types:                        H N O Pb F
# Number of each atom:               4 1  1 3
# Bandgap, HSE06 (eV):              5.7865
# Bandgap, GGA (eV):                4.3636
# Kpoint for VBM:                   0.25, 0.4167, 0.5
# Kpoint for CBM:                   0.4375, -0.0417, 0.3125
# Dielectric constant, electronic:  3.108
# Dielectric constant, ionic:       9.7217
# Dielectric constant, total:       12.8298
# Refractive index:                 1.763
# Atomization energy (eV/atom):     -4.4908
# Relative energy1 (eV/atom):       -0.1708
# Relative energy2 (eV/atom):       0.8234
# Volume of the unit cell (A^3):    89.95
# Density (g/cm^3):                 5.5057
# Tool:                             VASP
# Pseudopotential:                  PAW
# Note:                             ENCUT=400eV, k-spacing_relax=0.20/Angstrom, k-spacing_bandgap=0.15/Angstrom
# Created by:                       C.Kim, T.D.Huan, S.Krishnan, R. Ramprasad