data_1
_audit_creation_method   'Generated by vasp2cif'
_cell_length_a    4.76625915323
_cell_length_b    4.99420555546
_cell_length_c    4.77757174004
_cell_angle_alpha    93.5728667152
_cell_angle_beta    108.729015435
_cell_angle_gamma    92.882283762

_symmetry_space_group_name_H-M    'P 1'
loop_
_atom_site_label
_atom_site_type_symbol
_atom_site_fract_x
_atom_site_fract_y
_atom_site_fract_z
_atom_site_occupancy
Pb1   Pb   0.544766128751846   0.408751584481656   0.673586540529577   1.0
F2   F   0.491598314360935   0.927989049554093   0.620573751964059   1.0
F3   F   0.408913907531293   0.362754877246566   0.154668290538268   1.0
F4   F   0.023864249837061   0.357899071615044   0.544502809374578   1.0
N5   N   0.148791043641687   0.827867708817074   0.981328025435367   1.0
N6   N   0.851901428623577   0.819558413715484   0.278649662775024   1.0
H7   H   0.222599162467368   0.642659268720031   0.036866903662983   1.0
H8   H   0.913085647866758   0.634398897150575   0.347773525418333   1.0
H9   H   0.248396467565129   0.932669365675572   0.858924968562967   1.0
H10   H   0.726879452094344   0.918640462583383   0.382614841323182   1.0
H11   H   0.939916307216727   0.152099081464037   0.081404834531895   1.0
C12   C   0.978655853713903   0.944672174227847   0.112305828884317   1.0




# HOIP entry ID:                    0977
# Khazana ID:                       2827
# Organic cation source:            T.D.Huan et al., Phys. Rev. B 93,094105(2016)
# Label:                            Formamidinium Lead Fluoride
# Material class:                   Hybrid organic-inorganic perovskite ( MC_ino )
# Geometry class:                   Bulk crystalline materials ( GC_cry )
# Organic cation chemical formula:  HC(NH2)2
# Number of atom types:             5
# Total number of atoms:            12
# Atom types:                       C H N  Pb F
# Number of each atom:              1 5 2  1 3
# Bandgap, HSE06 (eV):              5.4501
# Bandgap, GGA (eV):                4.1042
# Kpoint for VBM:                   0.5, 0.5, 0.5
# Kpoint for CBM:                   0.4444, -0.4375, 0.4444
# Dielectric constant, electronic:  3.1673
# Dielectric constant, ionic:       6.8506
# Dielectric constant, total:       10.0179
# Refractive index:                 1.7797
# Atomization energy (eV/atom):     -4.9932
# Relative energy1 (eV/atom):       -0.5195
# Relative energy2 (eV/atom):       0.3091
# Volume of the unit cell (A^3):    107.19
# Density (g/cm^3):                 4.791
# Tool:                             VASP
# Pseudopotential:                  PAW
# Note:                             ENCUT=400eV, k-spacing_relax=0.20/Angstrom, k-spacing_bandgap=0.15/Angstrom
# Created by:                       C.Kim, T.D.Huan, S.Krishnan, R. Ramprasad