data_1
_audit_creation_method   'Generated by vasp2cif'
_cell_length_a    4.7547310704
_cell_length_b    5.49276954764
_cell_length_c    4.66202707855
_cell_angle_alpha    106.962618281
_cell_angle_beta    98.2084904084
_cell_angle_gamma    72.5952596689

_symmetry_space_group_name_H-M    'P 1'
loop_
_atom_site_label
_atom_site_type_symbol
_atom_site_fract_x
_atom_site_fract_y
_atom_site_fract_z
_atom_site_occupancy
Pb1   Pb   0.383568044197323   0.464377955044394   0.384414499518905   1.0
F2   F   0.529592719331852   0.882380614870632   0.240363335042722   1.0
F3   F   0.561891772664697   0.276794216937600   0.805790017127378   1.0
F4   F   0.949202883368458   0.330193423997476   0.357400603303974   1.0
N5   N   0.928965638641473   0.614688200805690   0.943629910785905   1.0
N6   N   0.172828675212888   0.942177137907159   0.700825592052433   1.0
H7   H   0.223085961327836   0.921731424020206   0.912846892151521   1.0
H8   H   0.951376321008118   0.032337511883606   0.686605895541123   1.0
H9   H   0.827177364224973   0.466038591597581   0.911820769574437   1.0
H10   H   0.282390283885961   0.069782702283096   0.680583867317049   1.0
H11   H   0.870012773727004   0.017589043565357   0.172762388688161   1.0
C12   C   0.806247562409443   0.834439177087147   0.100966228896471   1.0




# HOIP entry ID:                    0978
# Khazana ID:                       2828
# Organic cation source:            T.D.Huan et al., Phys. Rev. B 93,094105(2016)
# Label:                            Formamidinium Lead Fluoride
# Material class:                   Hybrid organic-inorganic perovskite ( MC_ino )
# Geometry class:                   Bulk crystalline materials ( GC_cry )
# Organic cation chemical formula:  HC(NH2)2
# Number of atom types:             5
# Total number of atoms:            12
# Atom types:                       C H N  Pb F
# Number of each atom:              1 5 2  1 3
# Bandgap, HSE06 (eV):              4.8007
# Bandgap, GGA (eV):                3.3949
# Kpoint for VBM:                   0.5, 0.5, 0.5
# Kpoint for CBM:                   0.5, 0.375, 0.3889
# Dielectric constant, electronic:  3.1535
# Dielectric constant, ionic:       5.8747
# Dielectric constant, total:       9.0282
# Refractive index:                 1.7758
# Atomization energy (eV/atom):     -4.8398
# Relative energy1 (eV/atom):       -0.366
# Relative energy2 (eV/atom):       0.4625
# Volume of the unit cell (A^3):    110.92
# Density (g/cm^3):                 4.6299
# Tool:                             VASP
# Pseudopotential:                  PAW
# Note:                             ENCUT=400eV, k-spacing_relax=0.20/Angstrom, k-spacing_bandgap=0.15/Angstrom
# Created by:                       C.Kim, T.D.Huan, S.Krishnan, R. Ramprasad