data_1
_audit_creation_method   'Generated by vasp2cif'
_cell_length_a    5.51885120262
_cell_length_b    5.51681283928
_cell_length_c    5.47752750497
_cell_angle_alpha    90.7114596461
_cell_angle_beta    89.0025607633
_cell_angle_gamma    89.5769959274

_symmetry_space_group_name_H-M    'P 1'
loop_
_atom_site_label
_atom_site_type_symbol
_atom_site_fract_x
_atom_site_fract_y
_atom_site_fract_z
_atom_site_occupancy
C1   C   0.321312033095694   0.450923355419164   0.283521616829766   1.0
C2   C   0.668020176512329   0.579496057494879   0.531336962428696   1.0
C3   C   0.421967049935020   0.230907729407974   0.657217523630159   1.0
C4   C   0.253353980694804   0.642772230371087   0.684478126298814   1.0
H5   H   0.355614327878925   0.715858440975026   0.836011088848480   1.0
H6   H   0.100110843186520   0.538554619624612   0.750884867424404   1.0
H7   H   0.129946482798431   0.411583075449904   0.297702520547155   1.0
H8   H   0.734969917334524   0.572624989238676   0.716121020722596   1.0
H9   H   0.240954276843183   0.157176978361314   0.644013612945997   1.0
H10   H   0.475771904805200   0.257359271058050   0.844246536052864   1.0
H11   H   0.779305198345185   0.468565713954440   0.408355888761108   1.0
H12   H   0.193650321669800   0.787673868179411   0.566699215682178   1.0
H13   H   0.553835700918320   0.117933679122714   0.559160895592385   1.0
H14   H   0.353824516453116   0.621840938127477   0.193485087340015   1.0
H15   H   0.654461899832867   0.763380833966501   0.466753467759013   1.0
H16   H   0.418138588405412   0.302851006967110   0.192828074491814   1.0
F17   F   0.506761571873518   0.944343095166353   0.104641520763252   1.0
F18   F   0.932036644662908   0.050246655413076   0.457788161635371   1.0
F19   F   0.852090410711860   0.387372142395847   0.018245261425363   1.0
N20   N   0.417199346541615   0.474941460178826   0.537980126974567   1.0
Pb21   Pb   0.910784807500811   0.984743859127605   0.050548423845903   1.0




# HOIP entry ID:                    0979
# Khazana ID:                       2829
# Organic cation source:            B.Saparov et al., Chem. Rev. 116, 4558 (2016)
# Label:                            Tetramethylammonium Lead Fluoride
# Material class:                   Hybrid organic-inorganic perovskite ( MC_ino )
# Geometry class:                   Bulk crystalline materials ( GC_cry )
# Organic cation chemical formula:  (CH3)4N
# Number of atom types:             5
# Total number of atoms:            21
# Atom types:                       C H N  Pb F
# Number of each atom:              4 12 1  1 3
# Bandgap, HSE06 (eV):              6.3242
# Bandgap, GGA (eV):                4.9344
# Kpoint for VBM:                   0.5, 0.5, 0.5
# Kpoint for CBM:                   0.5, 0.0714, 0.5
# Dielectric constant, electronic:  2.7686
# Dielectric constant, ionic:       2.1505
# Dielectric constant, total:       4.9191
# Refractive index:                 1.6639
# Atomization energy (eV/atom):     -4.7783
# Relative energy1 (eV/atom):       -0.2417
# Relative energy2 (eV/atom):       0.1937
# Volume of the unit cell (A^3):    166.73
# Density (g/cm^3):                 3.3698
# Tool:                             VASP
# Pseudopotential:                  PAW
# Note:                             ENCUT=400eV, k-spacing_relax=0.20/Angstrom, k-spacing_bandgap=0.15/Angstrom
# Created by:                       C.Kim, T.D.Huan, S.Krishnan, R. Ramprasad