data_1
_audit_creation_method   'Generated by vasp2cif'
_cell_length_a    3.63793587972
_cell_length_b    5.17096813152
_cell_length_c    5.40479382035
_cell_angle_alpha    89.941068498
_cell_angle_beta    107.558731362
_cell_angle_gamma    97.2206021272

_symmetry_space_group_name_H-M    'P 1'
loop_
_atom_site_label
_atom_site_type_symbol
_atom_site_fract_x
_atom_site_fract_y
_atom_site_fract_z
_atom_site_occupancy
F1   F   0.472118588947851   0.103776830392341   0.445484460663778   1.0
F2   F   0.168689586272322   0.946923138863774   0.852943057144003   1.0
F3   F   0.869481863361912   0.404488579479377   0.114691114155185   1.0
H4   H   0.307941877113116   0.528321589345992   0.392611671270501   1.0
H5   H   0.412924233373381   0.782218901100130   0.604595424320941   1.0
H6   H   0.922320526713364   0.497388856227452   0.681849203721605   1.0
H7   H   0.189211609419949   0.246478742140106   0.682232711734812   1.0
H8   H   0.348379128884083   0.464544253497905   0.917540856017709   1.0
Pb9   Pb   0.819038913473754   0.955451616422998   0.167616013161243   1.0
N10   N   0.439681807916067   0.589970795258544   0.582477834291879   1.0
N11   N   0.203371864524094   0.442676697271317   0.722797653518370   1.0




# HOIP entry ID:                    0980
# Khazana ID:                       2830
# Organic cation source:            B.Saparov et al., Chem. Rev. 116, 4558 (2016)
# Label:                            Hydrazinium Lead Fluoride
# Material class:                   Hybrid organic-inorganic perovskite ( MC_ino )
# Geometry class:                   Bulk crystalline materials ( GC_cry )
# Organic cation chemical formula:  NH2NH3
# Number of atom types:             4
# Total number of atoms:            11
# Atom types:                        H N  Pb F
# Number of each atom:               5 2  1 3
# Bandgap, HSE06 (eV):              5.5071
# Bandgap, GGA (eV):                3.99
# Kpoint for VBM:                   0.5, 0, 0.0556
# Kpoint for CBM:                   0.0455, 0.5, 0.5
# Dielectric constant, electronic:  3.0718
# Dielectric constant, ionic:       6.5178
# Dielectric constant, total:       9.5896
# Refractive index:                 1.7527
# Atomization energy (eV/atom):     -4.5944
# Relative energy1 (eV/atom):       -0.0606
# Relative energy2 (eV/atom):       0.8432
# Volume of the unit cell (A^3):    96.09
# Density (g/cm^3):                 5.1369
# Tool:                             VASP
# Pseudopotential:                  PAW
# Note:                             ENCUT=400eV, k-spacing_relax=0.20/Angstrom, k-spacing_bandgap=0.15/Angstrom
# Created by:                       C.Kim, T.D.Huan, S.Krishnan, R. Ramprasad