data_1
_audit_creation_method   'Generated by vasp2cif'
_cell_length_a    6.49842315418
_cell_length_b    4.78702818924
_cell_length_c    4.57816803908
_cell_angle_alpha    90.3682213928
_cell_angle_beta    45.0453194028
_cell_angle_gamma    103.508887129

_symmetry_space_group_name_H-M    'P 1'
loop_
_atom_site_label
_atom_site_type_symbol
_atom_site_fract_x
_atom_site_fract_y
_atom_site_fract_z
_atom_site_occupancy
F1   F   0.588006727996053   0.943759608107264   0.427237945183180   1.0
F2   F   0.094829619551056   0.942049627190528   0.421100955324064   1.0
F3   F   0.954023869781075   0.575831838074755   0.062242210560683   1.0
H4   H   0.470532108158522   0.691789213824450   0.222347872367202   1.0
H5   H   0.482105970562387   0.695420675205966   0.852457025266411   1.0
H6   H   0.802612127120121   0.474203539339996   0.902034334519257   1.0
H7   H   0.558075824361829   0.186546439456670   0.956508467865291   1.0
H8   H   0.810136561324036   0.475079762743491   0.524518164533362   1.0
Pb9   Pb   0.129970619494273   0.108325864518385   0.887454128488265   1.0
N10   N   0.431611785526449   0.557695809311490   0.080060958048655   1.0
N11   N   0.668574786124147   0.410447622227082   0.848357937843652   1.0




# HOIP entry ID:                    0981
# Khazana ID:                       2831
# Organic cation source:            B.Saparov et al., Chem. Rev. 116, 4558 (2016)
# Label:                            Hydrazinium Lead Fluoride
# Material class:                   Hybrid organic-inorganic perovskite ( MC_ino )
# Geometry class:                   Bulk crystalline materials ( GC_cry )
# Organic cation chemical formula:  NH2NH3
# Number of atom types:             4
# Total number of atoms:            11
# Atom types:                        H N  Pb F
# Number of each atom:               5 2  1 3
# Bandgap, HSE06 (eV):              6.0387
# Bandgap, GGA (eV):                4.6232
# Kpoint for VBM:                   0.5, 0.5, 0
# Kpoint for CBM:                   0.5, 0.0556, 0
# Dielectric constant, electronic:  3.0842
# Dielectric constant, ionic:       9.8089
# Dielectric constant, total:       12.8931
# Refractive index:                 1.7562
# Atomization energy (eV/atom):     -4.607
# Relative energy1 (eV/atom):       -0.0731
# Relative energy2 (eV/atom):       0.8307
# Volume of the unit cell (A^3):    95.36
# Density (g/cm^3):                 5.1762
# Tool:                             VASP
# Pseudopotential:                  PAW
# Note:                             ENCUT=400eV, k-spacing_relax=0.20/Angstrom, k-spacing_bandgap=0.15/Angstrom
# Created by:                       C.Kim, T.D.Huan, S.Krishnan, R. Ramprasad