data_1
_audit_creation_method   'Generated by vasp2cif'
_cell_length_a    3.53226128952
_cell_length_b    4.94123198856
_cell_length_c    6.59387886112
_cell_angle_alpha    75.6244004802
_cell_angle_beta    113.198547761
_cell_angle_gamma    114.272929228

_symmetry_space_group_name_H-M    'P 1'
loop_
_atom_site_label
_atom_site_type_symbol
_atom_site_fract_x
_atom_site_fract_y
_atom_site_fract_z
_atom_site_occupancy
F1   F   0.154966322124316   0.941912366201478   0.575445417434295   1.0
F2   F   0.554908973329937   0.968946252849285   0.109947334649540   1.0
F3   F   0.697881829679972   0.537818290153005   0.881268576191154   1.0
H4   H   0.439346846079083   0.522951068201259   0.570557797340214   1.0
H5   H   0.361575936412052   0.770036533581155   0.358114728224564   1.0
H6   H   0.672975476300223   0.452530707937235   0.319324267514560   1.0
H7   H   0.160500111718577   0.179390862419147   0.299270165141721   1.0
H8   H   0.202843180900750   0.487428696905511   0.114096021604645   1.0
Pb9   Pb   0.921277259045851   0.066280951398312   0.826218346128535   1.0
N10   N   0.240876419688654   0.548693417384939   0.410155135132712   1.0
N11   N   0.331457644720473   0.404050852968631   0.275062210638012   1.0




# HOIP entry ID:                    0982
# Khazana ID:                       2832
# Organic cation source:            B.Saparov et al., Chem. Rev. 116, 4558 (2016)
# Label:                            Hydrazinium Lead Fluoride
# Material class:                   Hybrid organic-inorganic perovskite ( MC_ino )
# Geometry class:                   Bulk crystalline materials ( GC_cry )
# Organic cation chemical formula:  NH2NH3
# Number of atom types:             4
# Total number of atoms:            11
# Atom types:                        H N  Pb F
# Number of each atom:               5 2  1 3
# Bandgap, HSE06 (eV):              5.8452
# Bandgap, GGA (eV):                4.3017
# Kpoint for VBM:                   0.5, 0.5, 0
# Kpoint for CBM:                   0, 0.5, 0.5
# Dielectric constant, electronic:  3.0603
# Dielectric constant, ionic:       8.4372
# Dielectric constant, total:       11.4975
# Refractive index:                 1.7494
# Atomization energy (eV/atom):     -4.5989
# Relative energy1 (eV/atom):       -0.0651
# Relative energy2 (eV/atom):       0.8387
# Volume of the unit cell (A^3):    95.92
# Density (g/cm^3):                 5.146
# Tool:                             VASP
# Pseudopotential:                  PAW
# Note:                             ENCUT=400eV, k-spacing_relax=0.20/Angstrom, k-spacing_bandgap=0.15/Angstrom
# Created by:                       C.Kim, T.D.Huan, S.Krishnan, R. Ramprasad