data_1
_audit_creation_method   'Generated by vasp2cif'
_cell_length_a    6.02761932543
_cell_length_b    4.63486367382
_cell_length_c    3.5446421439
_cell_angle_alpha    100.474613093
_cell_angle_beta    80.4228595353
_cell_angle_gamma    94.3305999839

_symmetry_space_group_name_H-M    'P 1'
loop_
_atom_site_label
_atom_site_type_symbol
_atom_site_fract_x
_atom_site_fract_y
_atom_site_fract_z
_atom_site_occupancy
F1   F   0.406490359989168   0.153004126524625   0.380624846666242   1.0
F2   F   0.869401919720077   0.932979781550258   0.462967072384399   1.0
F3   F   0.068272917860034   0.417645649844453   0.130230302027840   1.0
H4   H   0.458577975097887   0.503891368579959   0.188935159286223   1.0
H5   H   0.631074656410073   0.799372005281573   0.161980894310028   1.0
H6   H   0.834314520410733   0.384618644140407   0.908358596157981   1.0
H7   H   0.638118098468295   0.266891623955574   0.611376224116893   1.0
H8   H   0.804383612448819   0.568283546257507   0.558352461528133   1.0
Pb9   Pb   0.172644836358906   0.917246614747963   0.901592045104460   1.0
N10   N   0.546195699667023   0.633691771788256   0.003072078292707   1.0
N11   N   0.716845403568982   0.447514867329389   0.758490320125209   1.0




# HOIP entry ID:                    0983
# Khazana ID:                       2833
# Organic cation source:            B.Saparov et al., Chem. Rev. 116, 4558 (2016)
# Label:                            Hydrazinium Lead Fluoride
# Material class:                   Hybrid organic-inorganic perovskite ( MC_ino )
# Geometry class:                   Bulk crystalline materials ( GC_cry )
# Organic cation chemical formula:  NH2NH3
# Number of atom types:             4
# Total number of atoms:            11
# Atom types:                        H N  Pb F
# Number of each atom:               5 2  1 3
# Bandgap, HSE06 (eV):              5.4213
# Bandgap, GGA (eV):                4.0238
# Kpoint for VBM:                   0.2368, 0.5, 0.2368
# Kpoint for CBM:                   0, 0.0556, 0.5
# Dielectric constant, electronic:  3.1122
# Dielectric constant, ionic:       7.0125
# Dielectric constant, total:       10.1247
# Refractive index:                 1.7641
# Atomization energy (eV/atom):     -4.6043
# Relative energy1 (eV/atom):       -0.0705
# Relative energy2 (eV/atom):       0.8334
# Volume of the unit cell (A^3):    95.92
# Density (g/cm^3):                 5.146
# Tool:                             VASP
# Pseudopotential:                  PAW
# Note:                             ENCUT=400eV, k-spacing_relax=0.20/Angstrom, k-spacing_bandgap=0.15/Angstrom
# Created by:                       C.Kim, T.D.Huan, S.Krishnan, R. Ramprasad