data_1
_audit_creation_method   'Generated by vasp2cif'
_cell_length_a    7.17995416814
_cell_length_b    3.69963159263
_cell_length_c    4.55060948592
_cell_angle_alpha    109.274814237
_cell_angle_beta    105.515519905
_cell_angle_gamma    56.4208292001

_symmetry_space_group_name_H-M    'P 1'
loop_
_atom_site_label
_atom_site_type_symbol
_atom_site_fract_x
_atom_site_fract_y
_atom_site_fract_z
_atom_site_occupancy
F1   F   0.392626544243403   0.150003581235431   0.109124338624715   1.0
F2   F   0.140126017869899   0.129234136497936   0.491859629437739   1.0
F3   F   0.878677863411036   0.668037317692323   0.061522111572685   1.0
H4   H   0.576461556329632   0.674180017491814   0.822343164177526   1.0
H5   H   0.476671229897017   0.384569552210624   0.544743504769372   1.0
H6   H   0.825151965374140   0.483214535055235   0.478972250397186   1.0
H7   H   0.719354657289340   0.189425866035139   0.220398086580543   1.0
H8   H   0.554334077860723   0.756817073681620   0.323470027922376   1.0
Pb9   Pb   0.119121472708231   0.845892408011084   0.920848077857225   1.0
N10   N   0.620525690409774   0.390756543331991   0.647649097799011   1.0
N11   N   0.679478924606872   0.472158968756729   0.402019710861560   1.0




# HOIP entry ID:                    0984
# Khazana ID:                       2834
# Organic cation source:            B.Saparov et al., Chem. Rev. 116, 4558 (2016)
# Label:                            Hydrazinium Lead Fluoride
# Material class:                   Hybrid organic-inorganic perovskite ( MC_ino )
# Geometry class:                   Bulk crystalline materials ( GC_cry )
# Organic cation chemical formula:  NH2NH3
# Number of atom types:             4
# Total number of atoms:            11
# Atom types:                        H N  Pb F
# Number of each atom:               5 2  1 3
# Bandgap, HSE06 (eV):              5.7065
# Bandgap, GGA (eV):                4.2972
# Kpoint for VBM:                   0.5, 0, 0.5
# Kpoint for CBM:                   0.5, 0, 0.5
# Dielectric constant, electronic:  3.1111
# Dielectric constant, ionic:       9.1568
# Dielectric constant, total:       12.2679
# Refractive index:                 1.7638
# Atomization energy (eV/atom):     -4.6052
# Relative energy1 (eV/atom):       -0.0714
# Relative energy2 (eV/atom):       0.8324
# Volume of the unit cell (A^3):    94.51
# Density (g/cm^3):                 5.2228
# Tool:                             VASP
# Pseudopotential:                  PAW
# Note:                             ENCUT=400eV, k-spacing_relax=0.20/Angstrom, k-spacing_bandgap=0.15/Angstrom
# Created by:                       C.Kim, T.D.Huan, S.Krishnan, R. Ramprasad