data_1
_audit_creation_method   'Generated by vasp2cif'
_cell_length_a    6.45193732115
_cell_length_b    3.4383750685
_cell_length_c    4.19404244313
_cell_angle_alpha    86.5723210853
_cell_angle_beta    100.738302004
_cell_angle_gamma    92.4548325633

_symmetry_space_group_name_H-M    'P 1'
loop_
_atom_site_label
_atom_site_type_symbol
_atom_site_fract_x
_atom_site_fract_y
_atom_site_fract_z
_atom_site_occupancy
F1   F   0.426915197048251   0.158573583974897   0.023950366430623   1.0
F2   F   0.109873064026228   0.081855753286628   0.524161053975123   1.0
F3   F   0.837884441429521   0.102324387366427   0.957871845876152   1.0
H4   H   0.492868033164242   0.409522074924187   0.687704371650737   1.0
H5   H   0.587693380628138   0.855002952121850   0.720821768635804   1.0
H6   H   0.820357483727723   0.404958744372402   0.585500541507223   1.0
H7   H   0.652649490874373   0.371354766991990   0.226170199006482   1.0
H8   H   0.775435926336891   0.799557798525427   0.310247943194042   1.0
Pb9   Pb   0.163859578055346   0.673521374260691   0.093742354900191   1.0
N10   N   0.530050943447458   0.653204733376763   0.553406333816065   1.0
N11   N   0.710782461261816   0.553463830798666   0.413433221007606   1.0




# HOIP entry ID:                    0985
# Khazana ID:                       2835
# Organic cation source:            B.Saparov et al., Chem. Rev. 116, 4558 (2016)
# Label:                            Hydrazinium Lead Fluoride
# Material class:                   Hybrid organic-inorganic perovskite ( MC_ino )
# Geometry class:                   Bulk crystalline materials ( GC_cry )
# Organic cation chemical formula:  NH2NH3
# Number of atom types:             4
# Total number of atoms:            11
# Atom types:                        H N  Pb F
# Number of each atom:               5 2  1 3
# Bandgap, HSE06 (eV):              4.9116
# Bandgap, GGA (eV):                3.626
# Kpoint for VBM:                   0, 0.5, 0
# Kpoint for CBM:                   0.5, 0, 0.5
# Dielectric constant, electronic:  3.265
# Dielectric constant, ionic:       12.3455
# Dielectric constant, total:       15.6105
# Refractive index:                 1.8069
# Atomization energy (eV/atom):     -4.5858
# Relative energy1 (eV/atom):       -0.0519
# Relative energy2 (eV/atom):       0.8519
# Volume of the unit cell (A^3):    91.2
# Density (g/cm^3):                 5.4123
# Tool:                             VASP
# Pseudopotential:                  PAW
# Note:                             ENCUT=400eV, k-spacing_relax=0.20/Angstrom, k-spacing_bandgap=0.15/Angstrom
# Created by:                       C.Kim, T.D.Huan, S.Krishnan, R. Ramprasad