data_1
_audit_creation_method   'Generated by vasp2cif'
_cell_length_a    6.12177882855
_cell_length_b    3.48677601987
_cell_length_c    4.91794366529
_cell_angle_alpha    109.111270591
_cell_angle_beta    91.2261627144
_cell_angle_gamma    83.2373274563

_symmetry_space_group_name_H-M    'P 1'
loop_
_atom_site_label
_atom_site_type_symbol
_atom_site_fract_x
_atom_site_fract_y
_atom_site_fract_z
_atom_site_occupancy
F1   F   0.198277842564679   0.552669712548521   0.960022763483792   1.0
F2   F   0.983212495879506   0.329449134798161   0.439645268978232   1.0
F3   F   0.675803782087698   0.744817640937498   0.132808385892190   1.0
H4   H   0.522528040012290   0.638067324254806   0.801760381778863   1.0
H5   H   0.663543555626021   0.492601296578911   0.489867585623045   1.0
H6   H   0.198482191501363   0.655950064005850   0.511600596207394   1.0
H7   H   0.372577252673580   0.036091381281167   0.545096494825366   1.0
H8   H   0.364209948589611   0.632255420638373   0.250050285733785   1.0
Pb9   Pb   0.916498126204900   0.112731034727801   0.941641730783033   1.0
N10   N   0.517144916780552   0.490631224537765   0.585194803958444   1.0
N11   N   0.350861848079930   0.726425765691125   0.471681702735886   1.0




# HOIP entry ID:                    0986
# Khazana ID:                       2836
# Organic cation source:            B.Saparov et al., Chem. Rev. 116, 4558 (2016)
# Label:                            Hydrazinium Lead Fluoride
# Material class:                   Hybrid organic-inorganic perovskite ( MC_ino )
# Geometry class:                   Bulk crystalline materials ( GC_cry )
# Organic cation chemical formula:  NH2NH3
# Number of atom types:             4
# Total number of atoms:            11
# Atom types:                        H N  Pb F
# Number of each atom:               5 2  1 3
# Bandgap, HSE06 (eV):              5.5621
# Bandgap, GGA (eV):                4.0527
# Kpoint for VBM:                   0.5, 0.5, 0.5
# Kpoint for CBM:                   0.5, 0, 0.0556
# Dielectric constant, electronic:  3.0054
# Dielectric constant, ionic:       8.3295
# Dielectric constant, total:       11.3348
# Refractive index:                 1.7336
# Atomization energy (eV/atom):     -4.5903
# Relative energy1 (eV/atom):       -0.0565
# Relative energy2 (eV/atom):       0.8474
# Volume of the unit cell (A^3):    98.48
# Density (g/cm^3):                 5.0122
# Tool:                             VASP
# Pseudopotential:                  PAW
# Note:                             ENCUT=400eV, k-spacing_relax=0.20/Angstrom, k-spacing_bandgap=0.15/Angstrom
# Created by:                       C.Kim, T.D.Huan, S.Krishnan, R. Ramprasad