data_1
_audit_creation_method   'Generated by vasp2cif'
_cell_length_a    5.36383703707
_cell_length_b    3.75545231739
_cell_length_c    5.11689871872
_cell_angle_alpha    78.7031108064
_cell_angle_beta    90.0937041631
_cell_angle_gamma    72.560614169

_symmetry_space_group_name_H-M    'P 1'
loop_
_atom_site_label
_atom_site_type_symbol
_atom_site_fract_x
_atom_site_fract_y
_atom_site_fract_z
_atom_site_occupancy
F1   F   0.744827506367891   0.141436260699415   0.956536937697408   1.0
F2   F   0.977457297277226   0.448678282391306   0.405630023852204   1.0
F3   F   0.308647106336039   0.854793819874416   0.129257973641351   1.0
H4   H   0.271848530923521   0.987940957018139   0.547627640779332   1.0
H5   H   0.472091203868459   0.963449006412745   0.803504238506804   1.0
H6   H   0.648163620088660   0.042760267785624   0.280817997932033   1.0
H7   H   0.445315026074979   0.428594565082022   0.367784347470177   1.0
H8   H   0.726194845168152   0.210245886499678   0.537224336528581   1.0
Pb9   Pb   0.041836151078471   0.508310166749645   0.947823122694601   1.0
N10   N   0.463365463939382   0.904374117573283   0.618435097227064   1.0
N11   N   0.575613248877232   0.160116669913798   0.441158283670482   1.0




# HOIP entry ID:                    0987
# Khazana ID:                       2837
# Organic cation source:            B.Saparov et al., Chem. Rev. 116, 4558 (2016)
# Label:                            Hydrazinium Lead Fluoride
# Material class:                   Hybrid organic-inorganic perovskite ( MC_ino )
# Geometry class:                   Bulk crystalline materials ( GC_cry )
# Organic cation chemical formula:  NH2NH3
# Number of atom types:             4
# Total number of atoms:            11
# Atom types:                        H N  Pb F
# Number of each atom:               5 2  1 3
# Bandgap, HSE06 (eV):              5.7347
# Bandgap, GGA (eV):                4.2101
# Kpoint for VBM:                   0.0714, 0.5, 0.25
# Kpoint for CBM:                   0.5, 0, 0.5
# Dielectric constant, electronic:  3.0693
# Dielectric constant, ionic:       7.7055
# Dielectric constant, total:       10.7748
# Refractive index:                 1.7519
# Atomization energy (eV/atom):     -4.5883
# Relative energy1 (eV/atom):       -0.0545
# Relative energy2 (eV/atom):       0.8494
# Volume of the unit cell (A^3):    96.23
# Density (g/cm^3):                 5.1294
# Tool:                             VASP
# Pseudopotential:                  PAW
# Note:                             ENCUT=400eV, k-spacing_relax=0.20/Angstrom, k-spacing_bandgap=0.15/Angstrom
# Created by:                       C.Kim, T.D.Huan, S.Krishnan, R. Ramprasad