data_1
_audit_creation_method   'Generated by vasp2cif'
_cell_length_a    5.57610756304
_cell_length_b    4.64614386867
_cell_length_c    3.66780463993
_cell_angle_alpha    67.0595538353
_cell_angle_beta    109.08739283
_cell_angle_gamma    99.8740801915

_symmetry_space_group_name_H-M    'P 1'
loop_
_atom_site_label
_atom_site_type_symbol
_atom_site_fract_x
_atom_site_fract_y
_atom_site_fract_z
_atom_site_occupancy
Pb1   Pb   0.922697305962764   0.869081638011060   0.799092008040979   1.0
F2   F   0.585301948264835   0.910614376357131   0.109189309913752   1.0
F3   F   0.185113303355777   0.066744476512440   0.330529622632213   1.0
F4   F   0.862266852403380   0.404150576148524   0.499429451317468   1.0
N5   N   0.393664629982126   0.474668940322488   0.729396634976013   1.0
H6   H   0.198992404220881   0.442071189326739   0.643185986666580   1.0
H7   H   0.474254798048484   0.257928347976979   0.890948175322286   1.0
H8   H   0.453340761785462   0.593857284120197   0.469992065725229   1.0
H9   H   0.445927995976369   0.614493171224460   0.904766745405460   1.0




# HOIP entry ID:                    0988
# Khazana ID:                       2838
# Organic cation source:            T.D.Huan et al., Phys. Rev. B 93,094105(2016)
# Label:                            Ammonium Lead Fluoride
# Material class:                   Hybrid organic-inorganic perovskite ( MC_ino )
# Geometry class:                   Bulk crystalline materials ( GC_cry )
# Organic cation chemical formula:  NH4
# Number of atom types:             4
# Total number of atoms:            9
# Atom types:                        H N  Pb F
# Number of each atom:               4 1  1 3
# Bandgap, HSE06 (eV):              5.7579
# Bandgap, GGA (eV):                4.3054
# Kpoint for VBM:                   0.5, 0.5, 0
# Kpoint for CBM:                   0.5, 0.0556, 0.0385
# Dielectric constant, electronic:  3.0197
# Dielectric constant, ionic:       8.6313
# Dielectric constant, total:       11.6509
# Refractive index:                 1.7377
# Atomization energy (eV/atom):     -4.5271
# Relative energy1 (eV/atom):       -0.225
# Relative energy2 (eV/atom):       0.8797
# Volume of the unit cell (A^3):    82.59
# Density (g/cm^3):                 5.6747
# Tool:                             VASP
# Pseudopotential:                  PAW
# Note:                             ENCUT=400eV, k-spacing_relax=0.20/Angstrom, k-spacing_bandgap=0.15/Angstrom
# Created by:                       C.Kim, T.D.Huan, S.Krishnan, R. Ramprasad