data_1
_audit_creation_method   'Generated by vasp2cif'
_cell_length_a    3.60709394086
_cell_length_b    5.48563070306
_cell_length_c    4.73888997195
_cell_angle_alpha    97.5524460448
_cell_angle_beta    112.541037097
_cell_angle_gamma    69.7900342515

_symmetry_space_group_name_H-M    'P 1'
loop_
_atom_site_label
_atom_site_type_symbol
_atom_site_fract_x
_atom_site_fract_y
_atom_site_fract_z
_atom_site_occupancy
Pb1   Pb   0.147002847411969   0.960516013040106   0.138218577195268   1.0
F2   F   0.912316904745190   0.891756883797783   0.615306961382714   1.0
F3   F   0.386355113221214   0.244042155427195   0.933957629218185   1.0
F4   F   0.764805051730271   0.644675009116462   0.082236904927918   1.0
N5   N   0.555885194125608   0.450193912452427   0.534788542578319   1.0
H6   H   0.333345351879501   0.618412202183308   0.568396808726888   1.0
H7   H   0.517393173261546   0.303472499614735   0.624481425622292   1.0
H8   H   0.514459528765677   0.418407200219136   0.307093136127179   1.0
H9   H   0.852756834859008   0.456844124148965   0.670470014221159   1.0




# HOIP entry ID:                    0989
# Khazana ID:                       2839
# Organic cation source:            T.D.Huan et al., Phys. Rev. B 93,094105(2016)
# Label:                            Ammonium Lead Fluoride
# Material class:                   Hybrid organic-inorganic perovskite ( MC_ino )
# Geometry class:                   Bulk crystalline materials ( GC_cry )
# Organic cation chemical formula:  NH4
# Number of atom types:             4
# Total number of atoms:            9
# Atom types:                        H N  Pb F
# Number of each atom:               4 1  1 3
# Bandgap, HSE06 (eV):              5.8614
# Bandgap, GGA (eV):                4.4565
# Kpoint for VBM:                   0.3846, 0.1875, 0.3333
# Kpoint for CBM:                   0, 0.5, 0
# Dielectric constant, electronic:  3.0744
# Dielectric constant, ionic:       9.4592
# Dielectric constant, total:       12.5336
# Refractive index:                 1.7534
# Atomization energy (eV/atom):     -4.5125
# Relative energy1 (eV/atom):       -0.2103
# Relative energy2 (eV/atom):       0.8943
# Volume of the unit cell (A^3):    81.27
# Density (g/cm^3):                 5.7668
# Tool:                             VASP
# Pseudopotential:                  PAW
# Note:                             ENCUT=400eV, k-spacing_relax=0.20/Angstrom, k-spacing_bandgap=0.15/Angstrom
# Created by:                       C.Kim, T.D.Huan, S.Krishnan, R. Ramprasad