data_1
_audit_creation_method   'Generated by vasp2cif'
_cell_length_a    4.852359347
_cell_length_b    5.7042292317
_cell_length_c    5.32758615766
_cell_angle_alpha    86.7631030144
_cell_angle_beta    87.624264474
_cell_angle_gamma    101.625709693

_symmetry_space_group_name_H-M    'P 1'
loop_
_atom_site_label
_atom_site_type_symbol
_atom_site_fract_x
_atom_site_fract_y
_atom_site_fract_z
_atom_site_occupancy
C1   C   0.645619335082815   0.305761725912272   0.608552070457251   1.0
C2   C   0.415012634006257   0.647894006467839   0.683015748498348   1.0
C3   C   0.375815424292710   0.465028525670058   0.283686900975091   1.0
H4   H   0.766073213004223   0.356445832127965   0.771054501018634   1.0
H5   H   0.554020440218469   0.700453602158172   0.831531031591811   1.0
H6   H   0.478672351134566   0.367236770358391   0.153451632579962   1.0
H7   H   0.340187383319244   0.630562794762069   0.197745104915041   1.0
H8   H   0.354775194643152   0.800394295475491   0.584881981226169   1.0
H9   H   0.744406752902878   0.647496650843138   0.431577064256327   1.0
H10   H   0.180059433273845   0.356503531644427   0.367135475841819   1.0
H11   H   0.453854549255515   0.175611208533588   0.663927233944078   1.0
H12   H   0.226746362793364   0.523179026207906   0.759313993928172   1.0
H13   H   0.762719987424511   0.229816675175537   0.468116871806264   1.0
F14   F   0.526765921748033   0.993966579167006   0.107453752259303   1.0
F15   F   0.914475474086351   0.600161178582847   0.042587062223795   1.0
F16   F   0.988166211013132   0.931028739105408   0.464171347452441   1.0
N17   N   0.563383936945892   0.525352279152727   0.495297627401455   1.0
Pb18   Pb   0.017345394854975   0.000166578655204   0.029360599624071   1.0




# HOIP entry ID:                    0990
# Khazana ID:                       2840
# Organic cation source:            A. Mancini et al., J. Solid State Chem. 240, 55 (2016)
# Label:                            Trimethylammonium Lead Fluoride
# Material class:                   Hybrid organic-inorganic perovskite ( MC_ino )
# Geometry class:                   Bulk crystalline materials ( GC_cry )
# Organic cation chemical formula:  (CH3)3NH
# Number of atom types:             5
# Total number of atoms:            18
# Atom types:                       C H N  Pb F
# Number of each atom:              3 10 1  1 3
# Bandgap, HSE06 (eV):              5.9167
# Bandgap, GGA (eV):                4.6128
# Kpoint for VBM:                   0.5, 0.5, 0.5
# Kpoint for CBM:                   -0.4375, 0.4286, 0.2857
# Dielectric constant, electronic:  2.8817
# Dielectric constant, ionic:       3.9588
# Dielectric constant, total:       6.8405
# Refractive index:                 1.6976
# Atomization energy (eV/atom):     -4.7463
# Relative energy1 (eV/atom):       -0.2645
# Relative energy2 (eV/atom):       0.2878
# Volume of the unit cell (A^3):    144
# Density (g/cm^3):                 3.7399
# Tool:                             VASP
# Pseudopotential:                  PAW
# Note:                             ENCUT=400eV, k-spacing_relax=0.20/Angstrom, k-spacing_bandgap=0.15/Angstrom
# Created by:                       C.Kim, T.D.Huan, S.Krishnan, R. Ramprasad