data_1
_audit_creation_method   'Generated by vasp2cif'
_cell_length_a    5.1597339111
_cell_length_b    5.13038356237
_cell_length_c    5.4704430357
_cell_angle_alpha    97.583904778
_cell_angle_beta    84.7455529779
_cell_angle_gamma    83.8499219009

_symmetry_space_group_name_H-M    'P 1'
loop_
_atom_site_label
_atom_site_type_symbol
_atom_site_fract_x
_atom_site_fract_y
_atom_site_fract_z
_atom_site_occupancy
C1   C   0.303092619799332   0.327095934446050   0.436229973040543   1.0
C2   C   0.587164118806161   0.659694369570280   0.330685293151651   1.0
C3   C   0.663540973891950   0.418529891934317   0.684580692453956   1.0
H4   H   0.139214838377568   0.428442807333919   0.362044627415733   1.0
H5   H   0.439257018525278   0.715041649825766   0.213174439610139   1.0
H6   H   0.557868314815181   0.369296585432025   0.849632253766349   1.0
H7   H   0.796770405479957   0.561950291008673   0.727475955089442   1.0
H8   H   0.672607340691696   0.828554968017920   0.416504025870530   1.0
H9   H   0.342447231574704   0.678951993173747   0.646689667792863   1.0
H10   H   0.768834300647823   0.239867418892725   0.575698164860261   1.0
H11   H   0.423627911132037   0.192814400243164   0.288762452602231   1.0
H12   H   0.741384525217264   0.519387769890961   0.222873010086682   1.0
H13   H   0.240138635590734   0.222227388048927   0.584995857298677   1.0
F14   F   0.448340919853847   0.966143441310615   0.915015496588648   1.0
F15   F   0.100776241505333   0.542845504567453   0.982549490376841   1.0
F16   F   0.026679245699201   0.891062583455128   0.588919462878995   1.0
N17   N   0.465043728241187   0.532174783364875   0.534319255959033   1.0
Pb18   Pb   0.000671630150602   0.993388219483529   0.005849881157581   1.0




# HOIP entry ID:                    0991
# Khazana ID:                       2841
# Organic cation source:            A. Mancini et al., J. Solid State Chem. 240, 55 (2016)
# Label:                            Trimethylammonium Lead Fluoride
# Material class:                   Hybrid organic-inorganic perovskite ( MC_ino )
# Geometry class:                   Bulk crystalline materials ( GC_cry )
# Organic cation chemical formula:  (CH3)3NH
# Number of atom types:             5
# Total number of atoms:            18
# Atom types:                       C H N  Pb F
# Number of each atom:              3 10 1  1 3
# Bandgap, HSE06 (eV):              6.1385
# Bandgap, GGA (eV):                4.7496
# Kpoint for VBM:                   0.5, 0.5, 0.5
# Kpoint for CBM:                   0.375, -0.375, 0.3571
# Dielectric constant, electronic:  2.8977
# Dielectric constant, ionic:       3.081
# Dielectric constant, total:       5.9787
# Refractive index:                 1.7023
# Atomization energy (eV/atom):     -4.7425
# Relative energy1 (eV/atom):       -0.2608
# Relative energy2 (eV/atom):       0.2915
# Volume of the unit cell (A^3):    141.89
# Density (g/cm^3):                 3.7955
# Tool:                             VASP
# Pseudopotential:                  PAW
# Note:                             ENCUT=400eV, k-spacing_relax=0.20/Angstrom, k-spacing_bandgap=0.15/Angstrom
# Created by:                       C.Kim, T.D.Huan, S.Krishnan, R. Ramprasad