data_1
_audit_creation_method   'Generated by vasp2cif'
_cell_length_a    5.02497339968
_cell_length_b    5.27965136005
_cell_length_c    5.58918974559
_cell_angle_alpha    80.4919068643
_cell_angle_beta    84.2380594463
_cell_angle_gamma    94.9084813499

_symmetry_space_group_name_H-M    'P 1'
loop_
_atom_site_label
_atom_site_type_symbol
_atom_site_fract_x
_atom_site_fract_y
_atom_site_fract_z
_atom_site_occupancy
C1   C   0.758329324985709   0.469333068414080   0.590404280465776   1.0
C2   C   0.396043354241058   0.743962320732379   0.614530544969568   1.0
C3   C   0.414797761176551   0.444650475864293   0.313166028626668   1.0
H4   H   0.859516055510376   0.595969680526203   0.693938331042432   1.0
H5   H   0.294506908031145   0.597716890012130   0.762533963540015   1.0
H6   H   0.306726899602069   0.285178242962168   0.444164553455238   1.0
H7   H   0.556591217798392   0.370854623434347   0.189966289834842   1.0
H8   H   0.525881251979968   0.877175657608973   0.690608494386026   1.0
H9   H   0.677702657137523   0.760920312509363   0.323199504112310   1.0
H10   H   0.275886214637119   0.554899497178461   0.213737349589785   1.0
H11   H   0.637620556632307   0.311517130642777   0.715081641578607   1.0
H12   H   0.251080579981526   0.842178674520156   0.512080942014933   1.0
H13   H   0.894731832441771   0.393733378810801   0.464682445166119   1.0
F14   F   0.537044843480828   0.015777258196515   0.037381624794271   1.0
F15   F   0.958196462609372   0.644861219754240   0.038607271737291   1.0
F16   F   0.950978251947070   0.024098511825983   0.384931205758115   1.0
N17   N   0.568910267030574   0.616328257187739   0.448415206956312   1.0
Pb18   Pb   0.035505560776784   0.078934799819351   0.980200321971751   1.0




# HOIP entry ID:                    0993
# Khazana ID:                       2843
# Organic cation source:            A. Mancini et al., J. Solid State Chem. 240, 55 (2016)
# Label:                            Trimethylammonium Lead Fluoride
# Material class:                   Hybrid organic-inorganic perovskite ( MC_ino )
# Geometry class:                   Bulk crystalline materials ( GC_cry )
# Organic cation chemical formula:  (CH3)3NH
# Number of atom types:             5
# Total number of atoms:            18
# Atom types:                       C H N  Pb F
# Number of each atom:              3 10 1  1 3
# Bandgap, HSE06 (eV):              6.0654
# Bandgap, GGA (eV):                4.7049
# Kpoint for VBM:                   0.5, 0.5, 0.5
# Kpoint for CBM:                   0.3684, 0.3684, 0.3684
# Dielectric constant, electronic:  2.8563
# Dielectric constant, ionic:       12.1166
# Dielectric constant, total:       14.9729
# Refractive index:                 1.6901
# Atomization energy (eV/atom):     -4.7462
# Relative energy1 (eV/atom):       -0.2645
# Relative energy2 (eV/atom):       0.2878
# Volume of the unit cell (A^3):    144.72
# Density (g/cm^3):                 3.7213
# Tool:                             VASP
# Pseudopotential:                  PAW
# Note:                             ENCUT=400eV, k-spacing_relax=0.20/Angstrom, k-spacing_bandgap=0.15/Angstrom
# Created by:                       C.Kim, T.D.Huan, S.Krishnan, R. Ramprasad