data_1
_audit_creation_method   'Generated by vasp2cif'
_cell_length_a    7.33397530449
_cell_length_b    4.12440034929
_cell_length_c    4.9984427226
_cell_angle_alpha    95.4746174645
_cell_angle_beta    95.2656762925
_cell_angle_gamma    87.198529945

_symmetry_space_group_name_H-M    'P 1'
loop_
_atom_site_label
_atom_site_type_symbol
_atom_site_fract_x
_atom_site_fract_y
_atom_site_fract_z
_atom_site_occupancy
C1   C   0.441681257344676   0.507071591349735   0.772001567464208   1.0
C2   C   0.469284332487241   0.794349899071172   0.380182231333705   1.0
C3   C   0.735969525198250   0.449299185768645   0.534367632017407   1.0
H4   H   0.362966281488077   0.708814248573596   0.865673194322163   1.0
H5   H   0.363480976763420   0.965117324437180   0.449667304482240   1.0
H6   H   0.788704060972968   0.308775810563702   0.699153376979140   1.0
H7   H   0.839967327590045   0.609618628264933   0.488874217513150   1.0
H8   H   0.560637492401590   0.903616694848544   0.259298387897800   1.0
H9   H   0.631195375552203   0.849968703937229   0.751930898804687   1.0
H10   H   0.693971480048148   0.290836281791499   0.356974077346656   1.0
H11   H   0.349324983409822   0.360587747222951   0.633778904384030   1.0
H12   H   0.405371622926175   0.585692667161254   0.267945958978998   1.0
H13   H   0.515939126360493   0.364362533702497   0.920202329508257   1.0
F14   F   0.054733670744845   0.905863773942578   0.541831694742179   1.0
F15   F   0.216099958274292   0.224267691531431   0.094006150547600   1.0
F16   F   0.748907526205628   0.045575829393385   0.011015238568731   1.0
N17   N   0.575081918746505   0.663491554874469   0.618540138759379   1.0
Pb18   Pb   0.038003083485592   0.780099833565224   0.060326696349733   1.0




# HOIP entry ID:                    0995
# Khazana ID:                       2845
# Organic cation source:            A. Mancini et al., J. Solid State Chem. 240, 55 (2016)
# Label:                            Trimethylammonium Lead Fluoride
# Material class:                   Hybrid organic-inorganic perovskite ( MC_ino )
# Geometry class:                   Bulk crystalline materials ( GC_cry )
# Organic cation chemical formula:  (CH3)3NH
# Number of atom types:             5
# Total number of atoms:            18
# Atom types:                       C H N  Pb F
# Number of each atom:              3 10 1  1 3
# Bandgap, HSE06 (eV):              5.9022
# Bandgap, GGA (eV):                4.5766
# Kpoint for VBM:                   0.1, 0.5, 0.5
# Kpoint for CBM:                   0.1, 0, 0.5
# Dielectric constant, electronic:  2.8051
# Dielectric constant, ionic:       5.2521
# Dielectric constant, total:       8.0572
# Refractive index:                 1.6748
# Atomization energy (eV/atom):     -4.7366
# Relative energy1 (eV/atom):       -0.2549
# Relative energy2 (eV/atom):       0.2975
# Volume of the unit cell (A^3):    149.75
# Density (g/cm^3):                 3.5963
# Tool:                             VASP
# Pseudopotential:                  PAW
# Note:                             ENCUT=400eV, k-spacing_relax=0.20/Angstrom, k-spacing_bandgap=0.15/Angstrom
# Created by:                       C.Kim, T.D.Huan, S.Krishnan, R. Ramprasad