data_1
_audit_creation_method   'Generated by vasp2cif'
_cell_length_a    4.9663792075
_cell_length_b    4.19886989578
_cell_length_c    7.28461546597
_cell_angle_alpha    87.6012092448
_cell_angle_beta    84.1956108751
_cell_angle_gamma    84.7933981704

_symmetry_space_group_name_H-M    'P 1'
loop_
_atom_site_label
_atom_site_type_symbol
_atom_site_fract_x
_atom_site_fract_y
_atom_site_fract_z
_atom_site_occupancy
C1   C   0.267701038780892   0.485600090008710   0.447983933219604   1.0
C2   C   0.651180635129947   0.783707723886039   0.484042736106844   1.0
C3   C   0.494523984589499   0.437114517018088   0.748139100014576   1.0
H4   H   0.174653620648378   0.680739446757826   0.367751771207608   1.0
H5   H   0.581124347996678   0.951187844474298   0.378825590841622   1.0
H6   H   0.330788054019479   0.293032852715513   0.799027417002812   1.0
H7   H   0.533262133147510   0.596609217688737   0.854400392043246   1.0
H8   H   0.765795954940891   0.894334395589361   0.578921905300241   1.0
H9   H   0.272275771856087   0.824945033376487   0.642231055741568   1.0
H10   H   0.677173192853274   0.287343643910482   0.706308848427675   1.0
H11   H   0.413678184676399   0.346282510369093   0.355796022243027   1.0
H12   H   0.770987623487670   0.583593506389271   0.418779701940821   1.0
H13   H   0.117789865679576   0.340971442500532   0.519283647236222   1.0
F14   F   0.474885730205912   0.904347381455914   0.066397770812365   1.0
F15   F   0.920753173277468   0.231838155336625   0.222381414765209   1.0
F16   F   0.019717099537942   0.033344154382824   0.757037077825750   1.0
N17   N   0.411365115334156   0.644718856710234   0.586248798619032   1.0
Pb18   Pb   0.962864473838202   0.785949227430024   0.050112816651769   1.0




# HOIP entry ID:                    0996
# Khazana ID:                       2846
# Organic cation source:            A. Mancini et al., J. Solid State Chem. 240, 55 (2016)
# Label:                            Trimethylammonium Lead Fluoride
# Material class:                   Hybrid organic-inorganic perovskite ( MC_ino )
# Geometry class:                   Bulk crystalline materials ( GC_cry )
# Organic cation chemical formula:  (CH3)3NH
# Number of atom types:             5
# Total number of atoms:            18
# Atom types:                       C H N  Pb F
# Number of each atom:              3 10 1  1 3
# Bandgap, HSE06 (eV):              5.844
# Bandgap, GGA (eV):                4.5238
# Kpoint for VBM:                   0.5, 0.5, 0.1
# Kpoint for CBM:                   0.4375, -0.05, 0.2
# Dielectric constant, electronic:  2.7988
# Dielectric constant, ionic:       5.942
# Dielectric constant, total:       8.7408
# Refractive index:                 1.673
# Atomization energy (eV/atom):     -4.7379
# Relative energy1 (eV/atom):       -0.2562
# Relative energy2 (eV/atom):       0.2961
# Volume of the unit cell (A^3):    150.42
# Density (g/cm^3):                 3.5803
# Tool:                             VASP
# Pseudopotential:                  PAW
# Note:                             ENCUT=400eV, k-spacing_relax=0.20/Angstrom, k-spacing_bandgap=0.15/Angstrom
# Created by:                       C.Kim, T.D.Huan, S.Krishnan, R. Ramprasad