data_1
_audit_creation_method   'Generated by vasp2cif'
_cell_length_a    4.95489085421
_cell_length_b    3.91941897476
_cell_length_c    7.62784623403
_cell_angle_alpha    89.973309807
_cell_angle_beta    85.7753811357
_cell_angle_gamma    86.6685347828

_symmetry_space_group_name_H-M    'P 1'
loop_
_atom_site_label
_atom_site_type_symbol
_atom_site_fract_x
_atom_site_fract_y
_atom_site_fract_z
_atom_site_occupancy
C1   C   0.266183101585462   0.539724632073408   0.472696383757715   1.0
C2   C   0.676609604586375   0.839212240047843   0.470496153567332   1.0
C3   C   0.550846554451070   0.516272396131093   0.738180884644898   1.0
H4   H   0.175154720702160   0.738686785248149   0.394140688509530   1.0
H5   H   0.600646602133963   0.996742201603745   0.366805274865982   1.0
H6   H   0.392587082014700   0.361196434212367   0.795359089715141   1.0
H7   H   0.602221314179268   0.699629802557041   0.834823643010914   1.0
H8   H   0.813265658625355   0.968270180376869   0.548759259248335   1.0
H9   H   0.323530699354770   0.917401919782037   0.646812304589830   1.0
H10   H   0.728176891402867   0.356887025512449   0.694207642101958   1.0
H11   H   0.386532528640302   0.364185317145136   0.385421165798896   1.0
H12   H   0.775689068733449   0.609958946363591   0.410174971898719   1.0
H13   H   0.116439757216149   0.411381072101840   0.554755580371285   1.0
F14   F   0.520106418883927   0.838359337936609   0.089531308831113   1.0
F15   F   0.997533075885272   0.195496590415054   0.237142597973246   1.0
F16   F   0.057001717302313   0.078447528394605   0.790536143843880   1.0
N17   N   0.446124382001990   0.719252875826136   0.587347729578148   1.0
Pb18   Pb   0.028000822300591   0.729964714272121   0.049729177693656   1.0




# HOIP entry ID:                    0997
# Khazana ID:                       2847
# Organic cation source:            A. Mancini et al., J. Solid State Chem. 240, 55 (2016)
# Label:                            Trimethylammonium Lead Fluoride
# Material class:                   Hybrid organic-inorganic perovskite ( MC_ino )
# Geometry class:                   Bulk crystalline materials ( GC_cry )
# Organic cation chemical formula:  (CH3)3NH
# Number of atom types:             5
# Total number of atoms:            18
# Atom types:                       C H N  Pb F
# Number of each atom:              3 10 1  1 3
# Bandgap, HSE06 (eV):              5.795
# Bandgap, GGA (eV):                4.4454
# Kpoint for VBM:                   0.5, 0.5, 0.5
# Kpoint for CBM:                   0.3125, -0.05, 0.2
# Dielectric constant, electronic:  2.8457
# Dielectric constant, ionic:       13.8783
# Dielectric constant, total:       16.724
# Refractive index:                 1.6869
# Atomization energy (eV/atom):     -4.7305
# Relative energy1 (eV/atom):       -0.2488
# Relative energy2 (eV/atom):       0.3035
# Volume of the unit cell (A^3):    147.48
# Density (g/cm^3):                 3.6517
# Tool:                             VASP
# Pseudopotential:                  PAW
# Note:                             ENCUT=400eV, k-spacing_relax=0.20/Angstrom, k-spacing_bandgap=0.15/Angstrom
# Created by:                       C.Kim, T.D.Huan, S.Krishnan, R. Ramprasad