data_1
_audit_creation_method   'Generated by vasp2cif'
_cell_length_a    4.87604937796
_cell_length_b    5.09063002926
_cell_length_c    5.97173108419
_cell_angle_alpha    90.3907318901
_cell_angle_beta    92.0709155268
_cell_angle_gamma    77.1481272599

_symmetry_space_group_name_H-M    'P 1'
loop_
_atom_site_label
_atom_site_type_symbol
_atom_site_fract_x
_atom_site_fract_y
_atom_site_fract_z
_atom_site_occupancy
C1   C   0.524783490096169   0.941142223727645   0.362780870156485   1.0
C2   C   0.469402021112238   0.930620786928614   0.768400411630665   1.0
C3   C   0.248402919292346   0.642083072779158   0.523444275308854   1.0
H4   H   0.590375477294231   0.129074216541262   0.389008176183289   1.0
H5   H   0.354961897870403   0.847660791824644   0.892157914974376   1.0
H6   H   0.179729236322423   0.620948642793067   0.351387313025619   1.0
H7   H   0.082779492131138   0.641187974715081   0.638454684557118   1.0
H8   H   0.685985813180409   0.819343025193326   0.763124519051253   1.0
H9   H   0.148052743797734   0.059497060203363   0.538222701684553   1.0
H10   H   0.433374557482075   0.486214722806587   0.567967916411845   1.0
H11   H   0.706317255679096   0.774211673853017   0.378925351138257   1.0
H12   H   0.465979711788790   0.140334132888320   0.800397391710788   1.0
H13   H   0.416753769023238   0.935668240345969   0.202495743866592   1.0
F14   F   0.959923802390456   0.914254974080627   0.071679800211200   1.0
F15   F   0.879909921859699   0.300946215928022   0.648459152629826   1.0
F16   F   0.412097552015147   0.428288893794715   0.042641838500337   1.0
N17   N   0.330884505386422   0.907269435244970   0.543673684218135   1.0
Pb18   Pb   0.903975833278118   0.371933916351665   0.034898254740980   1.0




# HOIP entry ID:                    0998
# Khazana ID:                       2848
# Organic cation source:            A. Mancini et al., J. Solid State Chem. 240, 55 (2016)
# Label:                            Trimethylammonium Lead Fluoride
# Material class:                   Hybrid organic-inorganic perovskite ( MC_ino )
# Geometry class:                   Bulk crystalline materials ( GC_cry )
# Organic cation chemical formula:  (CH3)3NH
# Number of atom types:             5
# Total number of atoms:            18
# Atom types:                       C H N  Pb F
# Number of each atom:              3 10 1  1 3
# Bandgap, HSE06 (eV):              4.8213
# Bandgap, GGA (eV):                3.4595
# Kpoint for VBM:                   0.5, 0.5, 0.5
# Kpoint for CBM:                   0.5, 0.5, 0.5
# Dielectric constant, electronic:  2.9102
# Dielectric constant, ionic:       4.0297
# Dielectric constant, total:       6.9398
# Refractive index:                 1.7059
# Atomization energy (eV/atom):     -4.7438
# Relative energy1 (eV/atom):       -0.2621
# Relative energy2 (eV/atom):       0.2903
# Volume of the unit cell (A^3):    144.42
# Density (g/cm^3):                 3.7291
# Tool:                             VASP
# Pseudopotential:                  PAW
# Note:                             ENCUT=400eV, k-spacing_relax=0.20/Angstrom, k-spacing_bandgap=0.15/Angstrom
# Created by:                       C.Kim, T.D.Huan, S.Krishnan, R. Ramprasad