data_1
_audit_creation_method   'Generated by vasp2cif'
_cell_length_a    5.69136281891
_cell_length_b    4.80526295674
_cell_length_c    4.89221926192
_cell_angle_alpha    94.4916053371
_cell_angle_beta    96.801893157
_cell_angle_gamma    94.3432890178

_symmetry_space_group_name_H-M    'P 1'
loop_
_atom_site_label
_atom_site_type_symbol
_atom_site_fract_x
_atom_site_fract_y
_atom_site_fract_z
_atom_site_occupancy
F1   F   0.365781810982582   0.096416813229573   0.066809536319238   1.0
F2   F   0.012621391689438   0.055443513396989   0.486107036393320   1.0
F3   F   0.043019990101705   0.535315819346988   0.993679148614034   1.0
H4   H   0.362592363693962   0.507887896554907   0.148573214023911   1.0
H5   H   0.828649572648154   0.669383432190107   0.473924773082811   1.0
H6   H   0.467808432505338   0.838343800169388   0.242226772886426   1.0
H7   H   0.494434134878576   0.200175968905167   0.651480262341889   1.0
H8   H   0.354010256035204   0.803198290117977   0.688629130428069   1.0
H9   H   0.173002063279522   0.497493660379535   0.533188786944221   1.0
H10   H   0.724883919191010   0.341824320201754   0.289358559016552   1.0
H11   H   0.646963240875096   0.483318387248631   0.872332381919698   1.0
C12   C   0.350097191802135   0.601202791717462   0.572726207067104   1.0
C13   C   0.681265813038268   0.510164078086576   0.427116058199874   1.0
C14   C   0.552436763555130   0.421705785379312   0.669192555462955   1.0
Pb15   Pb   0.964274197568866   0.030701968566797   0.977583078703684   1.0
N16   N   0.459408858155125   0.637403474508808   0.305642498596256   1.0




# HOIP entry ID:                    0999
# Khazana ID:                       2849
# Organic cation source:            B. Zhou et al., Angew. Chem. Int. Ed. 50, 11441 (2011)
# Label:                            Azetidinium Lead Fluoride
# Material class:                   Hybrid organic-inorganic perovskite ( MC_ino )
# Geometry class:                   Bulk crystalline materials ( GC_cry )
# Organic cation chemical formula:  C3H6N2
# Number of atom types:             5
# Total number of atoms:            16
# Atom types:                       C H N  Pb F
# Number of each atom:              3 8 1  1 3
# Bandgap, HSE06 (eV):              5.5963
# Bandgap, GGA (eV):                4.3427
# Kpoint for VBM:                   0.5, 0.5, 0.5
# Kpoint for CBM:                   0.5, -0.25, 0.25
# Dielectric constant, electronic:  3.0263
# Dielectric constant, ionic:       5.9798
# Dielectric constant, total:       9.0061
# Refractive index:                 1.7396
# Atomization energy (eV/atom):     -4.8618
# Relative energy1 (eV/atom):       -0.2737
# Relative energy2 (eV/atom):       0.3477
# Volume of the unit cell (A^3):    131.96
# Density (g/cm^3):                 4.0558
# Tool:                             VASP
# Pseudopotential:                  PAW
# Note:                             ENCUT=400eV, k-spacing_relax=0.20/Angstrom, k-spacing_bandgap=0.15/Angstrom
# Created by:                       C.Kim, T.D.Huan, S.Krishnan, R. Ramprasad