data_1
_audit_creation_method   'Generated by vasp2cif'
_cell_length_a    4.91560593512
_cell_length_b    5.51803675751
_cell_length_c    5.00034247769
_cell_angle_alpha    84.646101533
_cell_angle_beta    85.4508191381
_cell_angle_gamma    100.242263596

_symmetry_space_group_name_H-M    'P 1'
loop_
_atom_site_label
_atom_site_type_symbol
_atom_site_fract_x
_atom_site_fract_y
_atom_site_fract_z
_atom_site_occupancy
F1   F   0.983505515880580   0.078194803297834   0.544498341573686   1.0
F2   F   0.503595596388990   0.079282018431662   0.028878126364631   1.0
F3   F   0.090271973812499   0.464395447304547   0.994834505217803   1.0
H4   H   0.315217598775242   0.737707604216901   0.799304987298939   1.0
H5   H   0.395368763533440   0.735667148555379   0.226458412014594   1.0
H6   H   0.573779493191054   0.930474290415866   0.596235170906560   1.0
H7   H   0.471428354772605   0.243908043782781   0.497278869664946   1.0
H8   H   0.869302644900692   0.663414740479375   0.688643115810535   1.0
H9   H   0.591449141823176   0.459990003487690   0.893217014880854   1.0
H10   H   0.149151412536689   0.524366990938162   0.459468151748425   1.0
H11   H   0.736879146595264   0.456189895208595   0.291077285881748   1.0
C12   C   0.657546649938553   0.567196183136105   0.700271953045309   1.0
C13   C   0.363835648098849   0.612152741377635   0.410298157376772   1.0
C14   C   0.571386673159616   0.436267902686396   0.452896594011449   1.0
Pb15   Pb   0.997576725067098   0.053308328452232   0.054948200149148   1.0
N16   N   0.466374661525648   0.752513858228887   0.643491114054605   1.0




# HOIP entry ID:                    1000
# Khazana ID:                       2850
# Organic cation source:            B. Zhou et al., Angew. Chem. Int. Ed. 50, 11441 (2011)
# Label:                            Azetidinium Lead Fluoride
# Material class:                   Hybrid organic-inorganic perovskite ( MC_ino )
# Geometry class:                   Bulk crystalline materials ( GC_cry )
# Organic cation chemical formula:  C3H6N2
# Number of atom types:             5
# Total number of atoms:            16
# Atom types:                       C H N  Pb F
# Number of each atom:              3 8 1  1 3
# Bandgap, HSE06 (eV):              5.1784
# Bandgap, GGA (eV):                3.9462
# Kpoint for VBM:                   0.5, 0.5, 0.5
# Kpoint for CBM:                   -0.375, 0.3571, 0.5
# Dielectric constant, electronic:  3.0293
# Dielectric constant, ionic:       8.4047
# Dielectric constant, total:       11.434
# Refractive index:                 1.7405
# Atomization energy (eV/atom):     -4.8534
# Relative energy1 (eV/atom):       -0.2653
# Relative energy2 (eV/atom):       0.3561
# Volume of the unit cell (A^3):    132.25
# Density (g/cm^3):                 4.0469
# Tool:                             VASP
# Pseudopotential:                  PAW
# Note:                             ENCUT=400eV, k-spacing_relax=0.20/Angstrom, k-spacing_bandgap=0.15/Angstrom
# Created by:                       C.Kim, T.D.Huan, S.Krishnan, R. Ramprasad