data_1
_audit_creation_method   'Generated by vasp2cif'
_cell_length_a    7.07885063799
_cell_length_b    4.62141197689
_cell_length_c    4.33104936459
_cell_angle_alpha    103.473849356
_cell_angle_beta    81.7181287409
_cell_angle_gamma    87.8281105365

_symmetry_space_group_name_H-M    'P 1'
loop_
_atom_site_label
_atom_site_type_symbol
_atom_site_fract_x
_atom_site_fract_y
_atom_site_fract_z
_atom_site_occupancy
F1   F   0.803075909620348   0.703159882419393   0.208698849912298   1.0
F2   F   0.014864363280908   0.125755110870771   0.855804462599847   1.0
F3   F   0.223731578803283   0.639425932816990   0.095126497731989   1.0
H4   H   0.677842742271244   0.035471466250890   0.003031643360891   1.0
H5   H   0.280563498261530   0.262484267171641   0.021981190502565   1.0
H6   H   0.346133534943385   0.898779090091627   0.986977582247153   1.0
H7   H   0.472006119814766   0.853988836269733   0.429474416445266   1.0
H8   H   0.314181770483406   0.178678549032354   0.486476550163558   1.0
H9   H   0.582587433644436   0.499530578239093   0.635626767413764   1.0
H10   H   0.741459300273487   0.170915017222724   0.475801755906333   1.0
H11   H   0.572886995297360   0.406804371045420   0.159791280904337   1.0
C12   C   0.433790562053258   0.081797266703797   0.567711679175170   1.0
C13   C   0.582361466718689   0.209111872256839   0.967850567516854   1.0
C14   C   0.608858279344211   0.264660574627720   0.631279158847232   1.0
Pb15   Pb   0.994408085864870   0.612662527678804   0.711653363085440   1.0
N16   N   0.386758359324794   0.093274657302250   0.921764234187182   1.0




# HOIP entry ID:                    1001
# Khazana ID:                       2851
# Organic cation source:            B. Zhou et al., Angew. Chem. Int. Ed. 50, 11441 (2011)
# Label:                            Azetidinium Lead Fluoride
# Material class:                   Hybrid organic-inorganic perovskite ( MC_ino )
# Geometry class:                   Bulk crystalline materials ( GC_cry )
# Organic cation chemical formula:  C3H6N2
# Number of atom types:             5
# Total number of atoms:            16
# Atom types:                       C H N  Pb F
# Number of each atom:              3 8 1  1 3
# Bandgap, HSE06 (eV):              4.9727
# Bandgap, GGA (eV):                3.5757
# Kpoint for VBM:                   0.5, 0.5, 0.5
# Kpoint for CBM:                   -0.3333, 0.2778, 0
# Dielectric constant, electronic:  2.9093
# Dielectric constant, ionic:       5.1115
# Dielectric constant, total:       8.0208
# Refractive index:                 1.7057
# Atomization energy (eV/atom):     -4.8438
# Relative energy1 (eV/atom):       -0.2557
# Relative energy2 (eV/atom):       0.3657
# Volume of the unit cell (A^3):    135.97
# Density (g/cm^3):                 3.9362
# Tool:                             VASP
# Pseudopotential:                  PAW
# Note:                             ENCUT=400eV, k-spacing_relax=0.20/Angstrom, k-spacing_bandgap=0.15/Angstrom
# Created by:                       C.Kim, T.D.Huan, S.Krishnan, R. Ramprasad