data_1
_audit_creation_method   'Generated by vasp2cif'
_cell_length_a    6.56262392334
_cell_length_b    4.8430615342
_cell_length_c    4.35194338267
_cell_angle_alpha    89.6172260385
_cell_angle_beta    94.1101223322
_cell_angle_gamma    81.6756744796

_symmetry_space_group_name_H-M    'P 1'
loop_
_atom_site_label
_atom_site_type_symbol
_atom_site_fract_x
_atom_site_fract_y
_atom_site_fract_z
_atom_site_occupancy
F1   F   0.773359677871781   0.690170747287610   0.165994286863139   1.0
F2   F   0.034336730477534   0.170844073690603   0.844957999530664   1.0
F3   F   0.210453925012416   0.663045465485482   0.220044999763296   1.0
H4   H   0.715199357679246   0.194400698772043   0.107696774991524   1.0
H5   H   0.294580876218156   0.052999768758276   0.987124127306075   1.0
H6   H   0.529367876732159   0.840092173490092   0.019260345241698   1.0
H7   H   0.561232718987313   0.904075412088432   0.492382408017235   1.0
H8   H   0.307269881686217   0.100654280152092   0.468710032643394   1.0
H9   H   0.456516021328738   0.528828297010449   0.583700483883199   1.0
H10   H   0.708194147492065   0.339718252050417   0.566793715812857   1.0
H11   H   0.473603507849376   0.422116678878879   0.133876085031780   1.0
C12   C   0.460139800948554   0.074123726186762   0.587746184326683   1.0
C13   C   0.563607242293273   0.270614718103737   0.000246337280423   1.0
C14   C   0.558675897724413   0.339848689754497   0.657197232712157   1.0
Pb15   Pb   0.998240844282215   0.672042253921902   0.767734947398218   1.0
N16   N   0.445911493416539   0.023404764368792   0.929794039197709   1.0




# HOIP entry ID:                    1002
# Khazana ID:                       2852
# Organic cation source:            B. Zhou et al., Angew. Chem. Int. Ed. 50, 11441 (2011)
# Label:                            Azetidinium Lead Fluoride
# Material class:                   Hybrid organic-inorganic perovskite ( MC_ino )
# Geometry class:                   Bulk crystalline materials ( GC_cry )
# Organic cation chemical formula:  C3H6N2
# Number of atom types:             5
# Total number of atoms:            16
# Atom types:                       C H N  Pb F
# Number of each atom:              3 8 1  1 3
# Bandgap, HSE06 (eV):              4.7658
# Bandgap, GGA (eV):                3.3606
# Kpoint for VBM:                   0.5, 0.5, 0.5
# Kpoint for CBM:                   0, 0.5, 0
# Dielectric constant, electronic:  2.8956
# Dielectric constant, ionic:       4.9762
# Dielectric constant, total:       7.8717
# Refractive index:                 1.7016
# Atomization energy (eV/atom):     -4.846
# Relative energy1 (eV/atom):       -0.2579
# Relative energy2 (eV/atom):       0.3635
# Volume of the unit cell (A^3):    136.49
# Density (g/cm^3):                 3.9212
# Tool:                             VASP
# Pseudopotential:                  PAW
# Note:                             ENCUT=400eV, k-spacing_relax=0.20/Angstrom, k-spacing_bandgap=0.15/Angstrom
# Created by:                       C.Kim, T.D.Huan, S.Krishnan, R. Ramprasad