data_1
_audit_creation_method   'Generated by vasp2cif'
_cell_length_a    4.73644118933
_cell_length_b    3.69729703539
_cell_length_c    7.67059682369
_cell_angle_alpha    92.0416850055
_cell_angle_beta    87.7372601399
_cell_angle_gamma    82.0246387803

_symmetry_space_group_name_H-M    'P 1'
loop_
_atom_site_label
_atom_site_type_symbol
_atom_site_fract_x
_atom_site_fract_y
_atom_site_fract_z
_atom_site_occupancy
F1   F   0.900595483006065   0.770267514611135   0.843517939858160   1.0
F2   F   0.344909698404990   0.063385377687816   0.075368345995876   1.0
F3   F   0.893297822151041   0.812584211061505   0.272145657828823   1.0
H4   H   0.099334836759908   0.926997495443558   0.588617501479192   1.0
H5   H   0.290058941622839   0.119307545414301   0.310683453657909   1.0
H6   H   0.129603614543605   0.537004997222567   0.362320489485342   1.0
H7   H   0.706692941949655   0.211036324639203   0.433626622869106   1.0
H8   H   0.567481123135899   0.674905180648899   0.479887497298577   1.0
H9   H   0.384019722653427   0.505854543229567   0.774713460429936   1.0
H10   H   0.550531906618247   0.048986590520762   0.726567595417187   1.0
H11   H   0.962538753149403   0.391027687663957   0.636984970237371   1.0
C12   C   0.531399372637836   0.395242278347858   0.495044882212163   1.0
C13   C   0.147552980488598   0.203556744499238   0.590793757775693   1.0
C14   C   0.422694677977610   0.284613041050598   0.675517784210399   1.0
Pb15   Pb   0.826277288065761   0.274303404860220   0.043981516946623   1.0
N16   N   0.257360836835240   0.314407063098720   0.412738524297701   1.0




# HOIP entry ID:                    1003
# Khazana ID:                       2853
# Organic cation source:            B. Zhou et al., Angew. Chem. Int. Ed. 50, 11441 (2011)
# Label:                            Azetidinium Lead Fluoride
# Material class:                   Hybrid organic-inorganic perovskite ( MC_ino )
# Geometry class:                   Bulk crystalline materials ( GC_cry )
# Organic cation chemical formula:  C3H6N2
# Number of atom types:             5
# Total number of atoms:            16
# Atom types:                       C H N  Pb F
# Number of each atom:              3 8 1  1 3
# Bandgap, HSE06 (eV):              5.4788
# Bandgap, GGA (eV):                4.1425
# Kpoint for VBM:                   0.5, -0.4091, 0.3
# Kpoint for CBM:                   0.5, 0.0455, 0.5
# Dielectric constant, electronic:  2.956
# Dielectric constant, ionic:       5.8075
# Dielectric constant, total:       8.7634
# Refractive index:                 1.7193
# Atomization energy (eV/atom):     -4.8546
# Relative energy1 (eV/atom):       -0.2665
# Relative energy2 (eV/atom):       0.3549
# Volume of the unit cell (A^3):    132.81
# Density (g/cm^3):                 4.0298
# Tool:                             VASP
# Pseudopotential:                  PAW
# Note:                             ENCUT=400eV, k-spacing_relax=0.20/Angstrom, k-spacing_bandgap=0.15/Angstrom
# Created by:                       C.Kim, T.D.Huan, S.Krishnan, R. Ramprasad