data_1
_audit_creation_method   'Generated by vasp2cif'
_cell_length_a    5.04872006989
_cell_length_b    3.7580703786
_cell_length_c    7.38135561621
_cell_angle_alpha    102.665642008
_cell_angle_beta    87.9551395431
_cell_angle_gamma    106.60305287

_symmetry_space_group_name_H-M    'P 1'
loop_
_atom_site_label
_atom_site_type_symbol
_atom_site_fract_x
_atom_site_fract_y
_atom_site_fract_z
_atom_site_occupancy
F1   F   0.803710416933562   0.777504232778867   0.842846908553490   1.0
F2   F   0.478090017751214   0.293352669093657   0.126286622590364   1.0
F3   F   0.929762811186791   0.014725203688485   0.261311096401457   1.0
H4   H   0.163699549686129   0.453645893672899   0.527110546956550   1.0
H5   H   0.504443527522433   0.691134832232052   0.317369003471981   1.0
H6   H   0.367119144543111   0.030737378688400   0.304219718626882   1.0
H7   H   0.772752585417500   0.089140249856953   0.589194914648132   1.0
H8   H   0.641729182673430   0.453779206688203   0.547730278373038   1.0
H9   H   0.257120494622804   0.270070035801375   0.751767604519259   1.0
H10   H   0.403747435666084   0.931137857414626   0.806951369679346   1.0
H11   H   0.998336465380113   0.782598960836538   0.484638541410824   1.0
C12   C   0.588557719055380   0.164656645393755   0.564965158701682   1.0
C13   C   0.189303788746514   0.748678841239148   0.527972896002801   1.0
C14   C   0.350536385962755   0.044634339928777   0.694786030568551   1.0
Pb15   Pb   0.942179705134450   0.406620664199323   0.040854073925679   1.0
N16   N   0.418570769717711   0.889792988486889   0.397725235569766   1.0




# HOIP entry ID:                    1004
# Khazana ID:                       2854
# Organic cation source:            B. Zhou et al., Angew. Chem. Int. Ed. 50, 11441 (2011)
# Label:                            Azetidinium Lead Fluoride
# Material class:                   Hybrid organic-inorganic perovskite ( MC_ino )
# Geometry class:                   Bulk crystalline materials ( GC_cry )
# Organic cation chemical formula:  C3H6N2
# Number of atom types:             5
# Total number of atoms:            16
# Atom types:                       C H N  Pb F
# Number of each atom:              3 8 1  1 3
# Bandgap, HSE06 (eV):              5.7066
# Bandgap, GGA (eV):                4.3619
# Kpoint for VBM:                   0.4375, 0.4545, 0.25
# Kpoint for CBM:                   -0.4375, 0, 0.4167
# Dielectric constant, electronic:  2.9801
# Dielectric constant, ionic:       5.3698
# Dielectric constant, total:       8.3499
# Refractive index:                 1.7263
# Atomization energy (eV/atom):     -4.8569
# Relative energy1 (eV/atom):       -0.2688
# Relative energy2 (eV/atom):       0.3526
# Volume of the unit cell (A^3):    130.89
# Density (g/cm^3):                 4.0889
# Tool:                             VASP
# Pseudopotential:                  PAW
# Note:                             ENCUT=400eV, k-spacing_relax=0.20/Angstrom, k-spacing_bandgap=0.15/Angstrom
# Created by:                       C.Kim, T.D.Huan, S.Krishnan, R. Ramprasad