data_1
_audit_creation_method   'Generated by vasp2cif'
_cell_length_a    3.67822926972
_cell_length_b    4.69492450225
_cell_length_c    7.82293176908
_cell_angle_alpha    85.3349293389
_cell_angle_beta    94.1923572029
_cell_angle_gamma    100.945979988

_symmetry_space_group_name_H-M    'P 1'
loop_
_atom_site_label
_atom_site_type_symbol
_atom_site_fract_x
_atom_site_fract_y
_atom_site_fract_z
_atom_site_occupancy
F1   F   0.323077677389808   0.604617867670837   0.093141232111400   1.0
F2   F   0.017379824040137   0.067441190705607   0.894199761626228   1.0
F3   F   0.265846705760093   0.640308267459539   0.661618588385325   1.0
H4   H   0.695408177208611   0.945974993604533   0.176671884284749   1.0
H5   H   0.980113183872243   0.777064355437861   0.527386895979989   1.0
H6   H   0.538326456939853   0.722147022137173   0.453839336879439   1.0
H7   H   0.460791921232505   0.158638805119808   0.552607765078355   1.0
H8   H   0.930458218927768   0.204330153390509   0.628768323792964   1.0
H9   H   0.125032531776185   0.468047440701976   0.353524565984843   1.0
H10   H   0.659798538452424   0.421689659830262   0.270538612671440   1.0
H11   H   0.167436798885452   0.991474913157005   0.247154857985259   1.0
C12   C   0.740959597048851   0.160199894863299   0.517643065516699   1.0
C13   C   0.896797700831510   0.024342455623759   0.278141712484607   1.0
C14   C   0.864569670829276   0.317342113941017   0.344914616345251   1.0
Pb15   Pb   0.795208217672689   0.550465215089923   0.895632778673255   1.0
N16   N   0.780064779132537   0.870825651266927   0.452336002200299   1.0




# HOIP entry ID:                    1005
# Khazana ID:                       2855
# Organic cation source:            B. Zhou et al., Angew. Chem. Int. Ed. 50, 11441 (2011)
# Label:                            Azetidinium Lead Fluoride
# Material class:                   Hybrid organic-inorganic perovskite ( MC_ino )
# Geometry class:                   Bulk crystalline materials ( GC_cry )
# Organic cation chemical formula:  C3H6N2
# Number of atom types:             5
# Total number of atoms:            16
# Atom types:                       C H N  Pb F
# Number of each atom:              3 8 1  1 3
# Bandgap, HSE06 (eV):              5.4208
# Bandgap, GGA (eV):                4.0184
# Kpoint for VBM:                   0.4211, 0.4211, 0
# Kpoint for CBM:                   0.0455, 0.5, 0.5
# Dielectric constant, electronic:  2.9875
# Dielectric constant, ionic:       6.0847
# Dielectric constant, total:       9.0723
# Refractive index:                 1.7285
# Atomization energy (eV/atom):     -4.8452
# Relative energy1 (eV/atom):       -0.2571
# Relative energy2 (eV/atom):       0.3643
# Volume of the unit cell (A^3):    131.97
# Density (g/cm^3):                 4.0555
# Tool:                             VASP
# Pseudopotential:                  PAW
# Note:                             ENCUT=400eV, k-spacing_relax=0.20/Angstrom, k-spacing_bandgap=0.15/Angstrom
# Created by:                       C.Kim, T.D.Huan, S.Krishnan, R. Ramprasad