data_1
_audit_creation_method   'Generated by vasp2cif'
_cell_length_a    6.53975138202
_cell_length_b    4.99988467435
_cell_length_c    4.32727154314
_cell_angle_alpha    72.6885825224
_cell_angle_beta    83.1737879942
_cell_angle_gamma    81.6524682725

_symmetry_space_group_name_H-M    'P 1'
loop_
_atom_site_label
_atom_site_type_symbol
_atom_site_fract_x
_atom_site_fract_y
_atom_site_fract_z
_atom_site_occupancy
F1   F   0.127971610340119   0.536721089621821   0.024798843788496   1.0
F2   F   0.872903205328598   0.147596766455983   0.682262162516864   1.0
F3   F   0.685426738682764   0.609573794073476   0.056728002296943   1.0
H4   H   0.398208239460089   0.832664827306914   0.913923360621126   1.0
H5   H   0.419171999066137   0.414220735460106   0.884217431632948   1.0
H6   H   0.629397796482074   0.166990437372519   0.878283358021207   1.0
H7   H   0.617414930473245   0.077344129402249   0.438716550563775   1.0
H8   H   0.395578410191554   0.331787098485158   0.410121571277173   1.0
H9   H   0.167566501881389   0.967131590785556   0.500844598974254   1.0
H10   H   0.383134413529163   0.707360361526447   0.487835882629106   1.0
H11   H   0.183257080331863   0.105735222383835   0.904511986218317   1.0
C12   C   0.466118762772453   0.144612332689959   0.345430852564014   1.0
C13   C   0.325367586849325   0.999718865200414   0.010179554204647   1.0
C14   C   0.317499488676553   0.922976780354091   0.379311894102301   1.0
Pb15   Pb   0.898871620214912   0.619979452269185   0.443821325756034   1.0
N16   N   0.480801615719741   0.210666516612292   0.980692624832919   1.0




# HOIP entry ID:                    1006
# Khazana ID:                       2856
# Organic cation source:            B. Zhou et al., Angew. Chem. Int. Ed. 50, 11441 (2011)
# Label:                            Azetidinium Lead Fluoride
# Material class:                   Hybrid organic-inorganic perovskite ( MC_ino )
# Geometry class:                   Bulk crystalline materials ( GC_cry )
# Organic cation chemical formula:  C3H6N2
# Number of atom types:             5
# Total number of atoms:            16
# Atom types:                       C H N  Pb F
# Number of each atom:              3 8 1  1 3
# Bandgap, HSE06 (eV):              5.2741
# Bandgap, GGA (eV):                3.904
# Kpoint for VBM:                   0.5, 0.5, 0.5
# Kpoint for CBM:                   0, 0.5, 0
# Dielectric constant, electronic:  2.9387
# Dielectric constant, ionic:       4.3954
# Dielectric constant, total:       7.3341
# Refractive index:                 1.7143
# Atomization energy (eV/atom):     -4.8319
# Relative energy1 (eV/atom):       -0.2438
# Relative energy2 (eV/atom):       0.3776
# Volume of the unit cell (A^3):    133.22
# Density (g/cm^3):                 4.0174
# Tool:                             VASP
# Pseudopotential:                  PAW
# Note:                             ENCUT=400eV, k-spacing_relax=0.20/Angstrom, k-spacing_bandgap=0.15/Angstrom
# Created by:                       C.Kim, T.D.Huan, S.Krishnan, R. Ramprasad