data_1
_audit_creation_method   'Generated by vasp2cif'
_cell_length_a    6.97466762428
_cell_length_b    4.65332399728
_cell_length_c    4.3750204863
_cell_angle_alpha    106.165525691
_cell_angle_beta    83.67561341
_cell_angle_gamma    88.0743312189

_symmetry_space_group_name_H-M    'P 1'
loop_
_atom_site_label
_atom_site_type_symbol
_atom_site_fract_x
_atom_site_fract_y
_atom_site_fract_z
_atom_site_occupancy
F1   F   0.871870058011226   0.170399111107038   0.461544788534667   1.0
F2   F   0.111476706122467   0.694693022759907   0.680814369501142   1.0
F3   F   0.686555230802711   0.766045117180333   0.754409334173218   1.0
H4   H   0.368017427796005   0.965860816132675   0.614249697967679   1.0
H5   H   0.554199450463614   0.514781332567345   0.859704969969364   1.0
H6   H   0.643459742485412   0.162897879367307   0.797601729941505   1.0
H7   H   0.598279663162479   0.214882051106542   0.330368466218040   1.0
H8   H   0.420266253792072   0.522261921026256   0.399979822698206   1.0
H9   H   0.172521150991891   0.154011782095203   0.283627330747393   1.0
H10   H   0.352158207309401   0.857820581634087   0.120038104556414   1.0
H11   H   0.232800994441355   0.319065721396306   0.783946780343747   1.0
C12   C   0.474533552719855   0.301828163208192   0.247118588683570   1.0
C13   C   0.338946968144590   0.158893459943137   0.819206656875956   1.0
C14   C   0.312676181906930   0.091179482430086   0.142357241734231   1.0
Pb15   Pb   0.914812337655327   0.647027884051759   0.296238918443976   1.0
N16   N   0.525846074194661   0.311341673993823   0.904143199611028   1.0




# HOIP entry ID:                    1007
# Khazana ID:                       2857
# Organic cation source:            B. Zhou et al., Angew. Chem. Int. Ed. 50, 11441 (2011)
# Label:                            Azetidinium Lead Fluoride
# Material class:                   Hybrid organic-inorganic perovskite ( MC_ino )
# Geometry class:                   Bulk crystalline materials ( GC_cry )
# Organic cation chemical formula:  C3H6N2
# Number of atom types:             5
# Total number of atoms:            16
# Atom types:                       C H N  Pb F
# Number of each atom:              3 8 1  1 3
# Bandgap, HSE06 (eV):              5.4868
# Bandgap, GGA (eV):                4.0999
# Kpoint for VBM:                   0.5, 0.5, 0.5
# Kpoint for CBM:                   -0.25, 0.2222, 0
# Dielectric constant, electronic:  2.8907
# Dielectric constant, ionic:       4.3822
# Dielectric constant, total:       7.2729
# Refractive index:                 1.7002
# Atomization energy (eV/atom):     -4.8462
# Relative energy1 (eV/atom):       -0.2581
# Relative energy2 (eV/atom):       0.3633
# Volume of the unit cell (A^3):    135.24
# Density (g/cm^3):                 3.9574
# Tool:                             VASP
# Pseudopotential:                  PAW
# Note:                             ENCUT=400eV, k-spacing_relax=0.20/Angstrom, k-spacing_bandgap=0.15/Angstrom
# Created by:                       C.Kim, T.D.Huan, S.Krishnan, R. Ramprasad