data_1
_audit_creation_method   'Generated by vasp2cif'
_cell_length_a    4.70467734632
_cell_length_b    6.17344887235
_cell_length_c    4.70425210441
_cell_angle_alpha    86.2836916746
_cell_angle_beta    75.7852025388
_cell_angle_gamma    93.7113765567

_symmetry_space_group_name_H-M    'P 1'
loop_
_atom_site_label
_atom_site_type_symbol
_atom_site_fract_x
_atom_site_fract_y
_atom_site_fract_z
_atom_site_occupancy
F1   F   0.372712521673442   0.773171202457540   0.077752613122783   1.0
F2   F   0.876621347224045   0.773392510421509   0.582018086651857   1.0
F3   F   0.886524597310213   0.069022207458851   0.068038313260885   1.0
H4   H   0.660304870659409   0.116351275944446   0.850041851627140   1.0
H5   H   0.424953978676015   0.879560344980305   0.528507159000256   1.0
H6   H   0.124383433590403   0.505612493992508   0.467219491528546   1.0
H7   H   0.488430582274638   0.504811547151988   0.830911695966627   1.0
H8   H   0.103952727493969   0.117364887433091   0.294252080635616   1.0
C9   C   0.429286222276715   0.376537544271656   0.709402733273080   1.0
C10   C   0.400116462971852   0.047758383449491   0.553939787401561   1.0
C11   C   0.245552086927532   0.376933773047476   0.525887800845517   1.0
Pb12   Pb   0.866360107015630   0.692698890487520   0.088506449266312   1.0
N13   N   0.525081980201804   0.170218507596630   0.721668401576707   1.0
N14   N   0.232579081704330   0.170826431306985   0.429503535843089   1.0




# HOIP entry ID:                    1008
# Khazana ID:                       2858
# Organic cation source:            B.Saparov et al., Chem. Rev. 116, 4558 (2016)
# Label:                            Imidazolium Lead Fluoride
# Material class:                   Hybrid organic-inorganic perovskite ( MC_ino )
# Geometry class:                   Bulk crystalline materials ( GC_cry )
# Organic cation chemical formula:  C3H5N2
# Number of atom types:             5
# Total number of atoms:            14
# Atom types:                       C H N  Pb F
# Number of each atom:              3 5 2  1 3
# Bandgap, HSE06 (eV):              5.1026
# Bandgap, GGA (eV):                3.9393
# Kpoint for VBM:                   -0.3333, 0.4167, 0.3333
# Kpoint for CBM:                   0.5, 0, 0.5
# Dielectric constant, electronic:  3.1899
# Dielectric constant, ionic:       4.7502
# Dielectric constant, total:       7.9401
# Refractive index:                 1.786
# Atomization energy (eV/atom):     -5.3854
# Relative energy1 (eV/atom):       -0.1234
# Relative energy2 (eV/atom):       0.5867
# Volume of the unit cell (A^3):    131.71
# Density (g/cm^3):                 4.202
# Tool:                             VASP
# Pseudopotential:                  PAW
# Note:                             ENCUT=400eV, k-spacing_relax=0.20/Angstrom, k-spacing_bandgap=0.15/Angstrom
# Created by:                       C.Kim, T.D.Huan, S.Krishnan, R. Ramprasad