data_1
_audit_creation_method   'Generated by vasp2cif'
_cell_length_a    4.79071135559
_cell_length_b    6.02830938553
_cell_length_c    4.70627906254
_cell_angle_alpha    97.2464360134
_cell_angle_beta    78.5608075492
_cell_angle_gamma    84.0131166379

_symmetry_space_group_name_H-M    'P 1'
loop_
_atom_site_label
_atom_site_type_symbol
_atom_site_fract_x
_atom_site_fract_y
_atom_site_fract_z
_atom_site_occupancy
F1   F   0.642625053502549   0.781137337273464   0.930104809128125   1.0
F2   F   0.131620897500113   0.824953394828306   0.384403248527199   1.0
F3   F   0.119710095859382   0.116913539024779   0.931738317671119   1.0
H4   H   0.328650099112402   0.097560904875323   0.231696472512581   1.0
H5   H   0.611998777539441   0.955854597184519   0.602168942344193   1.0
H6   H   0.869471146863901   0.580039949862019   0.416161977658781   1.0
H7   H   0.469786051823078   0.471532951637805   0.098699078776249   1.0
H8   H   0.933580038782047   0.235891437051421   0.705943322334896   1.0
C9   C   0.551553820259826   0.385559907581040   0.254796387645776   1.0
C10   C   0.620912982474671   0.108785706006977   0.510069833923964   1.0
C11   C   0.753410492168776   0.437604311101218   0.410068001405357   1.0
Pb12   Pb   0.145229270551297   0.732681815515072   0.866494409857829   1.0
N13   N   0.470955962511219   0.182187436120259   0.322300680824568   1.0
N14   N   0.791675311051392   0.262766711937800   0.570094517389414   1.0




# HOIP entry ID:                    1009
# Khazana ID:                       2859
# Organic cation source:            B.Saparov et al., Chem. Rev. 116, 4558 (2016)
# Label:                            Imidazolium Lead Fluoride
# Material class:                   Hybrid organic-inorganic perovskite ( MC_ino )
# Geometry class:                   Bulk crystalline materials ( GC_cry )
# Organic cation chemical formula:  C3H5N2
# Number of atom types:             5
# Total number of atoms:            14
# Atom types:                       C H N  Pb F
# Number of each atom:              3 5 2  1 3
# Bandgap, HSE06 (eV):              5.278
# Bandgap, GGA (eV):                4.1006
# Kpoint for VBM:                   0, 0.5, 0.5
# Kpoint for CBM:                   -0.375, 0.5, 0.1667
# Dielectric constant, electronic:  3.1782
# Dielectric constant, ionic:       4.6287
# Dielectric constant, total:       7.8069
# Refractive index:                 1.7828
# Atomization energy (eV/atom):     -5.3805
# Relative energy1 (eV/atom):       -0.1185
# Relative energy2 (eV/atom):       0.5916
# Volume of the unit cell (A^3):    130.98
# Density (g/cm^3):                 4.2254
# Tool:                             VASP
# Pseudopotential:                  PAW
# Note:                             ENCUT=400eV, k-spacing_relax=0.20/Angstrom, k-spacing_bandgap=0.15/Angstrom
# Created by:                       C.Kim, T.D.Huan, S.Krishnan, R. Ramprasad