data_1
_audit_creation_method   'Generated by vasp2cif'
_cell_length_a    5.58789205549
_cell_length_b    5.09803465521
_cell_length_c    4.87575011121
_cell_angle_alpha    76.5668645462
_cell_angle_beta    82.430759913
_cell_angle_gamma    98.1984445923

_symmetry_space_group_name_H-M    'P 1'
loop_
_atom_site_label
_atom_site_type_symbol
_atom_site_fract_x
_atom_site_fract_y
_atom_site_fract_z
_atom_site_occupancy
F1   F   0.290832933025399   0.798904091705545   0.100386432054947   1.0
F2   F   0.915720134811679   0.748749068153444   0.587525142662919   1.0
F3   F   0.865252569318429   0.326339629029171   0.115219919842936   1.0
H4   H   0.673126665909315   0.335444614231406   0.877546614176595   1.0
H5   H   0.687188817596827   0.987273199813885   0.582595479238051   1.0
H6   H   0.055256660283384   0.330053286221840   0.457774198812594   1.0
H7   H   0.296703907307162   0.565334948329252   0.834246551767485   1.0
H8   H   0.316999074631063   0.984813231212087   0.334267704488731   1.0
C9   C   0.338079594284053   0.415392735221665   0.722412066259693   1.0
C10   C   0.551708381062525   0.115299847935482   0.595270579444126   1.0
C11   C   0.217741643184134   0.296405422347277   0.543614411282356   1.0
Pb12   Pb   0.882787339183707   0.797615832861361   0.094055798760230   1.0
N13   N   0.546037173978384   0.299577994202792   0.749457428831747   1.0
N14   N   0.356565105424032   0.112656098734796   0.464867672377586   1.0




# HOIP entry ID:                    1010
# Khazana ID:                       2860
# Organic cation source:            B.Saparov et al., Chem. Rev. 116, 4558 (2016)
# Label:                            Imidazolium Lead Fluoride
# Material class:                   Hybrid organic-inorganic perovskite ( MC_ino )
# Geometry class:                   Bulk crystalline materials ( GC_cry )
# Organic cation chemical formula:  C3H5N2
# Number of atom types:             5
# Total number of atoms:            14
# Atom types:                       C H N  Pb F
# Number of each atom:              3 5 2  1 3
# Bandgap, HSE06 (eV):              4.4664
# Bandgap, GGA (eV):                3.2919
# Kpoint for VBM:                   0.5, 0.5, 0
# Kpoint for CBM:                   0.5, 0.5, 0.5
# Dielectric constant, electronic:  3.1788
# Dielectric constant, ionic:       5.766
# Dielectric constant, total:       8.9448
# Refractive index:                 1.7829
# Atomization energy (eV/atom):     -5.379
# Relative energy1 (eV/atom):       -0.117
# Relative energy2 (eV/atom):       0.5932
# Volume of the unit cell (A^3):    131.74
# Density (g/cm^3):                 4.201
# Tool:                             VASP
# Pseudopotential:                  PAW
# Note:                             ENCUT=400eV, k-spacing_relax=0.20/Angstrom, k-spacing_bandgap=0.15/Angstrom
# Created by:                       C.Kim, T.D.Huan, S.Krishnan, R. Ramprasad