data_1
_audit_creation_method   'Generated by vasp2cif'
_cell_length_a    4.62131492277
_cell_length_b    3.53806123674
_cell_length_c    8.11574000106
_cell_angle_alpha    87.2611003165
_cell_angle_beta    87.9628617523
_cell_angle_gamma    81.7304873015

_symmetry_space_group_name_H-M    'P 1'
loop_
_atom_site_label
_atom_site_type_symbol
_atom_site_fract_x
_atom_site_fract_y
_atom_site_fract_z
_atom_site_occupancy
F1   F   0.954364203319187   0.926627696915880   0.810549479998734   1.0
F2   F   0.507065748028054   0.645752042518588   0.051701871440493   1.0
F3   F   0.943095265915225   0.897914040932164   0.233472150654386   1.0
H4   H   0.542808980989463   0.597633408469335   0.268609620394244   1.0
H5   H   0.143475140830027   0.173100485926106   0.683446356086812   1.0
H6   H   0.542938885056500   0.529449030308236   0.791164560871024   1.0
H7   H   0.820611788977196   0.793048521496090   0.511279018357286   1.0
H8   H   0.139311201710576   0.208637983071171   0.370231983352127   1.0
C9   C   0.509930262968908   0.492799340705332   0.663203911489319   1.0
C10   C   0.649241496831614   0.620628379138523   0.525373916312020   1.0
C11   C   0.283359043360505   0.337982075178452   0.444554844551519   1.0
Pb12   Pb   0.025869898601641   0.405949703033173   0.025499071522404   1.0
N13   N   0.281946801895323   0.320802911412706   0.609689639194457   1.0
N14   N   0.504911281515781   0.521064380894209   0.390673575775168   1.0




# HOIP entry ID:                    1012
# Khazana ID:                       2862
# Organic cation source:            B.Saparov et al., Chem. Rev. 116, 4558 (2016)
# Label:                            Imidazolium Lead Fluoride
# Material class:                   Hybrid organic-inorganic perovskite ( MC_ino )
# Geometry class:                   Bulk crystalline materials ( GC_cry )
# Organic cation chemical formula:  C3H5N2
# Number of atom types:             5
# Total number of atoms:            14
# Atom types:                       C H N  Pb F
# Number of each atom:              3 5 2  1 3
# Bandgap, HSE06 (eV):              4.8334
# Bandgap, GGA (eV):                3.5992
# Kpoint for VBM:                   0.5, 0.5, 0.5
# Kpoint for CBM:                   0, 0, 0
# Dielectric constant, electronic:  3.1114
# Dielectric constant, ionic:       5.7576
# Dielectric constant, total:       8.869
# Refractive index:                 1.7639
# Atomization energy (eV/atom):     -5.3815
# Relative energy1 (eV/atom):       -0.1195
# Relative energy2 (eV/atom):       0.5907
# Volume of the unit cell (A^3):    131.11
# Density (g/cm^3):                 4.2212
# Tool:                             VASP
# Pseudopotential:                  PAW
# Note:                             ENCUT=400eV, k-spacing_relax=0.20/Angstrom, k-spacing_bandgap=0.15/Angstrom
# Created by:                       C.Kim, T.D.Huan, S.Krishnan, R. Ramprasad