data_1
_audit_creation_method   'Generated by vasp2cif'
_cell_length_a    5.88309586075
_cell_length_b    5.80898291421
_cell_length_c    6.00588681852
_cell_angle_alpha    81.4848511045
_cell_angle_beta    88.602711313
_cell_angle_gamma    94.386835293

_symmetry_space_group_name_H-M    'P 1'
loop_
_atom_site_label
_atom_site_type_symbol
_atom_site_fract_x
_atom_site_fract_y
_atom_site_fract_z
_atom_site_occupancy
C1   C   0.461773320836706   0.583064824852343   0.335765020648715   1.0
C2   C   0.546938833402351   0.404243086647462   0.199706459269549   1.0
H3   H   0.730404097522964   0.435340951734304   0.160707111591130   1.0
H4   H   0.457120758922130   0.415733412159042   0.042498973581004   1.0
H5   H   0.579535521203027   0.410325746044499   0.642179530262240   1.0
H6   H   0.534307515017169   0.691919701604554   0.650837071436101   1.0
H7   H   0.511938669158170   0.226726541522396   0.290220502370950   1.0
H8   H   0.489872182829700   0.761479209143076   0.247067323281804   1.0
H9   H   0.281731519813128   0.547545016064731   0.386236539461976   1.0
H10   H   0.763550817695524   0.627045610350329   0.514210000908960   1.0
Cl11   Cl   0.532563889386338   0.022499584028488   0.808654557047213   1.0
Cl12   Cl   0.069658676221380   0.505085713894431   0.818895791126792   1.0
Cl13   Cl   0.008329078034969   0.989359437740816   0.348603912147674   1.0
N14   N   0.592918148573261   0.576734036077255   0.550925475458932   1.0
Pb15   Pb   0.034066971383176   0.011487128136274   0.874511731406947   1.0




# HOIP entry ID:                    1014
# Khazana ID:                       2864
# Organic cation source:            B.Saparov et al., Chem. Rev. 116, 4558 (2016)
# Label:                            Ethylammonium Lead Chloride
# Material class:                   Hybrid organic-inorganic perovskite ( MC_ino )
# Geometry class:                   Bulk crystalline materials ( GC_cry )
# Organic cation chemical formula:  CH3CH2NH3
# Number of atom types:             5
# Total number of atoms:            15
# Atom types:                       C H N  Pb Cl
# Number of each atom:              2 8 1  1 3
# Bandgap, HSE06 (eV):              3.561
# Bandgap, GGA (eV):                2.6486
# Kpoint for VBM:                   0.5, 0.5, 0.5
# Kpoint for CBM:                   0.5, 0.5, 0.4737
# Dielectric constant, electronic:  3.5564
# Dielectric constant, ionic:       9.2665
# Dielectric constant, total:       12.8229
# Refractive index:                 1.8858
# Atomization energy (eV/atom):     -4.4081
# Relative energy1 (eV/atom):       0.0128
# Relative energy2 (eV/atom):       0.313
# Volume of the unit cell (A^3):    202.26
# Density (g/cm^3):                 2.9528
# Tool:                             VASP
# Pseudopotential:                  PAW
# Note:                             ENCUT=400eV, k-spacing_relax=0.20/Angstrom, k-spacing_bandgap=0.15/Angstrom
# Created by:                       C.Kim, T.D.Huan, S.Krishnan, R. Ramprasad