data_1
_audit_creation_method   'Generated by vasp2cif'
_cell_length_a    5.65622548739
_cell_length_b    4.15131324985
_cell_length_c    8.74081381298
_cell_angle_alpha    96.9885773255
_cell_angle_beta    90.451428007
_cell_angle_gamma    92.0999429744

_symmetry_space_group_name_H-M    'P 1'
loop_
_atom_site_label
_atom_site_type_symbol
_atom_site_fract_x
_atom_site_fract_y
_atom_site_fract_z
_atom_site_occupancy
C1   C   0.568184388035164   0.743969036909355   0.418731228991859   1.0
C2   C   0.569954752052666   0.563975127984122   0.560052189485461   1.0
H3   H   0.731897989532072   0.429559600108497   0.566553586676918   1.0
H4   H   0.563247626140338   0.740440404345257   0.662801890678075   1.0
H5   H   0.729660916609760   0.377189657745184   0.266662595249670   1.0
H6   H   0.576526016490547   0.632416973060757   0.174785594342175   1.0
H7   H   0.406048448067210   0.876687776800857   0.411124851675474   1.0
H8   H   0.416107429004669   0.396743643987698   0.560632371246626   1.0
H9   H   0.722761774991099   0.908998116075793   0.417469153397008   1.0
H10   H   0.429423931177432   0.352668544432170   0.260640645594805   1.0
Cl11   Cl   0.561060907107020   0.859941276399425   0.966516108109531   1.0
Cl12   Cl   0.068830720616837   0.159100856068889   0.203957745401503   1.0
Cl13   Cl   0.070157224613602   0.061141975735005   0.698552611984674   1.0
N14   N   0.577253155697292   0.509606683378131   0.271694180475919   1.0
Pb15   Pb   0.062424719864275   0.642270326968855   0.927995246690308   1.0




# HOIP entry ID:                    1015
# Khazana ID:                       2865
# Organic cation source:            B.Saparov et al., Chem. Rev. 116, 4558 (2016)
# Label:                            Ethylammonium Lead Chloride
# Material class:                   Hybrid organic-inorganic perovskite ( MC_ino )
# Geometry class:                   Bulk crystalline materials ( GC_cry )
# Organic cation chemical formula:  CH3CH2NH3
# Number of atom types:             5
# Total number of atoms:            15
# Atom types:                       C H N  Pb Cl
# Number of each atom:              2 8 1  1 3
# Bandgap, HSE06 (eV):              4.6482
# Bandgap, GGA (eV):                3.6294
# Kpoint for VBM:                   0.5, 0.2, 0.5
# Kpoint for CBM:                   0.5, 0, 0.1
# Dielectric constant, electronic:  3.266
# Dielectric constant, ionic:       6.3549
# Dielectric constant, total:       9.6209
# Refractive index:                 1.8072
# Atomization energy (eV/atom):     -4.3997
# Relative energy1 (eV/atom):       0.0212
# Relative energy2 (eV/atom):       0.3214
# Volume of the unit cell (A^3):    203.56
# Density (g/cm^3):                 2.9339
# Tool:                             VASP
# Pseudopotential:                  PAW
# Note:                             ENCUT=400eV, k-spacing_relax=0.20/Angstrom, k-spacing_bandgap=0.15/Angstrom
# Created by:                       C.Kim, T.D.Huan, S.Krishnan, R. Ramprasad