data_1
_audit_creation_method   'Generated by vasp2cif'
_cell_length_a    8.34761325021
_cell_length_b    4.23943133307
_cell_length_c    5.81939098518
_cell_angle_alpha    82.0297248897
_cell_angle_beta    93.5373875784
_cell_angle_gamma    87.7271353726

_symmetry_space_group_name_H-M    'P 1'
loop_
_atom_site_label
_atom_site_type_symbol
_atom_site_fract_x
_atom_site_fract_y
_atom_site_fract_z
_atom_site_occupancy
C1   C   0.467654550961932   0.554091765368241   0.405679679027813   1.0
C2   C   0.405074262274397   0.695469192598878   0.611942169728103   1.0
H3   H   0.383114421587166   0.507793307695920   0.753643075222591   1.0
H4   H   0.490190265469011   0.853593059973129   0.681815913861044   1.0
H5   H   0.637521771551441   0.243051616292611   0.627999577179388   1.0
H6   H   0.721402600694447   0.551428121103129   0.488463209346755   1.0
H7   H   0.389414050155359   0.374312036213752   0.350509270853237   1.0
H8   H   0.291727800244047   0.830815597728282   0.558244506552775   1.0
H9   H   0.481321456372065   0.733137933377101   0.255225531864319   1.0
H10   H   0.666216270204615   0.258690021800881   0.340910767968545   1.0
Cl11   Cl   0.948456828228132   0.789055371603538   0.540483207678236   1.0
Cl12   Cl   0.713252259468049   0.114655213450703   0.005216198594915   1.0
Cl13   Cl   0.216044490087612   0.091430488041318   0.026897655032755   1.0
N14   N   0.632694528783013   0.389476195581679   0.469679822864556   1.0
Pb15   Pb   0.983824443918770   0.621770079170794   0.032139414224851   1.0




# HOIP entry ID:                    1016
# Khazana ID:                       2866
# Organic cation source:            B.Saparov et al., Chem. Rev. 116, 4558 (2016)
# Label:                            Ethylammonium Lead Chloride
# Material class:                   Hybrid organic-inorganic perovskite ( MC_ino )
# Geometry class:                   Bulk crystalline materials ( GC_cry )
# Organic cation chemical formula:  CH3CH2NH3
# Number of atom types:             5
# Total number of atoms:            15
# Atom types:                       C H N  Pb Cl
# Number of each atom:              2 8 1  1 3
# Bandgap, HSE06 (eV):              4.6774
# Bandgap, GGA (eV):                3.6682
# Kpoint for VBM:                   0.5, 0.1667, 0.5
# Kpoint for CBM:                   -0.1, 0.0556, 0.5
# Dielectric constant, electronic:  3.2681
# Dielectric constant, ionic:       5.9683
# Dielectric constant, total:       9.2363
# Refractive index:                 1.8078
# Atomization energy (eV/atom):     -4.4026
# Relative energy1 (eV/atom):       0.0183
# Relative energy2 (eV/atom):       0.3185
# Volume of the unit cell (A^3):    203.32
# Density (g/cm^3):                 2.9374
# Tool:                             VASP
# Pseudopotential:                  PAW
# Note:                             ENCUT=400eV, k-spacing_relax=0.20/Angstrom, k-spacing_bandgap=0.15/Angstrom
# Created by:                       C.Kim, T.D.Huan, S.Krishnan, R. Ramprasad