data_1
_audit_creation_method   'Generated by vasp2cif'
_cell_length_a    5.87811462912
_cell_length_b    4.3285459438
_cell_length_c    8.12861480393
_cell_angle_alpha    94.7504781805
_cell_angle_beta    96.9943653665
_cell_angle_gamma    93.7226190805

_symmetry_space_group_name_H-M    'P 1'
loop_
_atom_site_label
_atom_site_type_symbol
_atom_site_fract_x
_atom_site_fract_y
_atom_site_fract_z
_atom_site_occupancy
C1   C   0.411518591162370   0.828070233123228   0.614278273604420   1.0
C2   C   0.585476415441768   0.619321639307714   0.549444554212222   1.0
H3   H   0.504278277776514   0.445968152009406   0.450651428553087   1.0
H4   H   0.712407919469655   0.764013518209403   0.496975651423050   1.0
H5   H   0.150967548019935   0.465272579643319   0.616440155871686   1.0
H6   H   0.115260947867625   0.787528708266535   0.737287626644466   1.0
H7   H   0.493793735648779   0.007360220732551   0.708991483227052   1.0
H8   H   0.675047568145757   0.501480561289810   0.649439739121512   1.0
H9   H   0.314640776719557   0.935400724277834   0.514064426336482   1.0
H10   H   0.314122612156822   0.557371218932886   0.804153304662506   1.0
Cl11   Cl   0.449816080790860   0.620755062112885   0.084802448114822   1.0
Cl12   Cl   0.919416173213953   0.132217892666304   0.866271433666853   1.0
Cl13   Cl   0.978059235289095   0.212626331892380   0.371082456496090   1.0
N14   N   0.236352010941808   0.643802425385026   0.697686525331072   1.0
Pb15   Pb   0.941442107355570   0.670340732150642   0.122950492734610   1.0




# HOIP entry ID:                    1017
# Khazana ID:                       2867
# Organic cation source:            B.Saparov et al., Chem. Rev. 116, 4558 (2016)
# Label:                            Ethylammonium Lead Chloride
# Material class:                   Hybrid organic-inorganic perovskite ( MC_ino )
# Geometry class:                   Bulk crystalline materials ( GC_cry )
# Organic cation chemical formula:  CH3CH2NH3
# Number of atom types:             5
# Total number of atoms:            15
# Atom types:                       C H N  Pb Cl
# Number of each atom:              2 8 1  1 3
# Bandgap, HSE06 (eV):              4.3797
# Bandgap, GGA (eV):                3.3766
# Kpoint for VBM:                   0.5, -0.2778, 0.3
# Kpoint for CBM:                   -0.4286, 0, 0.4
# Dielectric constant, electronic:  3.3472
# Dielectric constant, ionic:       8.5636
# Dielectric constant, total:       11.9108
# Refractive index:                 1.8295
# Atomization energy (eV/atom):     -4.4039
# Relative energy1 (eV/atom):       0.0169
# Relative energy2 (eV/atom):       0.3171
# Volume of the unit cell (A^3):    203.99
# Density (g/cm^3):                 2.9277
# Tool:                             VASP
# Pseudopotential:                  PAW
# Note:                             ENCUT=400eV, k-spacing_relax=0.20/Angstrom, k-spacing_bandgap=0.15/Angstrom
# Created by:                       C.Kim, T.D.Huan, S.Krishnan, R. Ramprasad