data_1
_audit_creation_method   'Generated by vasp2cif'
_cell_length_a    7.34457071641
_cell_length_b    4.47581666561
_cell_length_c    6.96967888752
_cell_angle_alpha    108.950028376
_cell_angle_beta    84.6860587258
_cell_angle_gamma    100.499588858

_symmetry_space_group_name_H-M    'P 1'
loop_
_atom_site_label
_atom_site_type_symbol
_atom_site_fract_x
_atom_site_fract_y
_atom_site_fract_z
_atom_site_occupancy
C1   C   0.568848206572270   0.497582441463095   0.478510630580949   1.0
C2   C   0.691766043812173   0.822922047742992   0.545531150754961   1.0
H3   H   0.813030179151149   0.800908531600243   0.616123910200351   1.0
H4   H   0.743537705774479   0.907159831437319   0.416754680938844   1.0
H5   H   0.434520627277116   0.568324608190274   0.241227112919745   1.0
H6   H   0.323698342773291   0.679873435015224   0.465762591782138   1.0
H7   H   0.641405179870297   0.319505551620111   0.369243883144769   1.0
H8   H   0.618869961385336   0.000225626387511   0.657075285482208   1.0
H9   H   0.516584409725638   0.416482536930282   0.607626967191074   1.0
H10   H   0.312954619335393   0.293193324586326   0.335741341882638   1.0
Cl11   Cl   0.428984993429552   0.830248155696545   0.017003929103879   1.0
Cl12   Cl   0.983423826840422   0.281041434958176   0.198809064231085   1.0
Cl13   Cl   0.170447065892589   0.060946578749579   0.640580513228606   1.0
N14   N   0.399858614389274   0.509669584073634   0.373705689143634   1.0
Pb15   Pb   0.064480223771028   0.663996311548701   0.923723249415133   1.0




# HOIP entry ID:                    1018
# Khazana ID:                       2868
# Organic cation source:            B.Saparov et al., Chem. Rev. 116, 4558 (2016)
# Label:                            Ethylammonium Lead Chloride
# Material class:                   Hybrid organic-inorganic perovskite ( MC_ino )
# Geometry class:                   Bulk crystalline materials ( GC_cry )
# Organic cation chemical formula:  CH3CH2NH3
# Number of atom types:             5
# Total number of atoms:            15
# Atom types:                       C H N  Pb Cl
# Number of each atom:              2 8 1  1 3
# Bandgap, HSE06 (eV):              4.6102
# Bandgap, GGA (eV):                3.5365
# Kpoint for VBM:                   -0.2, -0.3333, 0.1429
# Kpoint for CBM:                   0.2, 0, 0.4286
# Dielectric constant, electronic:  3.0539
# Dielectric constant, ionic:       6.2057
# Dielectric constant, total:       9.2597
# Refractive index:                 1.7475
# Atomization energy (eV/atom):     -4.392
# Relative energy1 (eV/atom):       0.0289
# Relative energy2 (eV/atom):       0.3291
# Volume of the unit cell (A^3):    212.93
# Density (g/cm^3):                 2.8048
# Tool:                             VASP
# Pseudopotential:                  PAW
# Note:                             ENCUT=400eV, k-spacing_relax=0.20/Angstrom, k-spacing_bandgap=0.15/Angstrom
# Created by:                       C.Kim, T.D.Huan, S.Krishnan, R. Ramprasad