data_1
_audit_creation_method   'Generated by vasp2cif'
_cell_length_a    4.72498070844
_cell_length_b    4.06584326857
_cell_length_c    10.4120464199
_cell_angle_alpha    78.8887095849
_cell_angle_beta    85.2453659417
_cell_angle_gamma    90.4195834266

_symmetry_space_group_name_H-M    'P 1'
loop_
_atom_site_label
_atom_site_type_symbol
_atom_site_fract_x
_atom_site_fract_y
_atom_site_fract_z
_atom_site_occupancy
C1   C   0.433817781752084   0.105088301343466   0.469521433627591   1.0
C2   C   0.680004792147889   0.118215590737811   0.553902405008497   1.0
H3   H   0.821958371529131   0.908672394169678   0.550405998876640   1.0
H4   H   0.802725460240341   0.353256141754830   0.523269643865159   1.0
H5   H   0.370664420778212   0.115491297581578   0.269947649024939   1.0
H6   H   0.686235387164403   0.962871329320934   0.309814616117214   1.0
H7   H   0.315389089218337   0.867344412844639   0.497403891771888   1.0
H8   H   0.596430134970724   0.103494245608035   0.655787426682042   1.0
H9   H   0.285986592966446   0.306996709052501   0.475739459751413   1.0
H10   H   0.641014983280234   0.367880030211961   0.288575962368188   1.0
Cl11   Cl   0.584800727161873   0.322615784556905   0.007297798435832   1.0
Cl12   Cl   0.048060395693970   0.690419090533142   0.241506147198367   1.0
Cl13   Cl   0.137787116485928   0.498257229924478   0.741547216827215   1.0
N14   N   0.537096064804852   0.140742324727866   0.325657873519301   1.0
Pb15   Pb   0.088318681805627   0.900805117632296   0.944492476925628   1.0




# HOIP entry ID:                    1019
# Khazana ID:                       2869
# Organic cation source:            B.Saparov et al., Chem. Rev. 116, 4558 (2016)
# Label:                            Ethylammonium Lead Chloride
# Material class:                   Hybrid organic-inorganic perovskite ( MC_ino )
# Geometry class:                   Bulk crystalline materials ( GC_cry )
# Organic cation chemical formula:  CH3CH2NH3
# Number of atom types:             5
# Total number of atoms:            15
# Atom types:                       C H N  Pb Cl
# Number of each atom:              2 8 1  1 3
# Bandgap, HSE06 (eV):              4.1891
# Bandgap, GGA (eV):                3.1356
# Kpoint for VBM:                   0.4375, -0.15, 0.125
# Kpoint for CBM:                   0.5, 0, 0
# Dielectric constant, electronic:  3.4139
# Dielectric constant, ionic:       11.3099
# Dielectric constant, total:       14.7238
# Refractive index:                 1.8477
# Atomization energy (eV/atom):     -4.398
# Relative energy1 (eV/atom):       0.0229
# Relative energy2 (eV/atom):       0.3231
# Volume of the unit cell (A^3):    195.55
# Density (g/cm^3):                 3.0541
# Tool:                             VASP
# Pseudopotential:                  PAW
# Note:                             ENCUT=400eV, k-spacing_relax=0.20/Angstrom, k-spacing_bandgap=0.15/Angstrom
# Created by:                       C.Kim, T.D.Huan, S.Krishnan, R. Ramprasad