data_1
_audit_creation_method   'Generated by vasp2cif'
_cell_length_a    5.80736521641
_cell_length_b    4.4110539945
_cell_length_c    7.95086602697
_cell_angle_alpha    85.9641315057
_cell_angle_beta    85.2791957875
_cell_angle_gamma    78.5804099061

_symmetry_space_group_name_H-M    'P 1'
loop_
_atom_site_label
_atom_site_type_symbol
_atom_site_fract_x
_atom_site_fract_y
_atom_site_fract_z
_atom_site_occupancy
C1   C   0.466889966176307   0.530320609601612   0.532216596923506   1.0
C2   C   0.662955343143764   0.712021905094045   0.494039312212204   1.0
H3   H   0.822534233353447   0.565210876582806   0.441753286049414   1.0
H4   H   0.613258611332730   0.903651941442412   0.401510054419369   1.0
H5   H   0.515761873286822   0.369187990794191   0.281949023886621   1.0
H6   H   0.289601811753994   0.661612681457956   0.308495674610281   1.0
H7   H   0.524214311760114   0.311524202169813   0.602730370229180   1.0
H8   H   0.702183372206524   0.804458067363400   0.609707858728413   1.0
H9   H   0.314374275072168   0.664491699237432   0.599851491685590   1.0
H10   H   0.262269605278272   0.307969155381660   0.383305985994725   1.0
Cl11   Cl   0.543375483996067   0.730756838403899   0.982767287901356   1.0
Cl12   Cl   0.006510037675279   0.091516028445143   0.222262757004885   1.0
Cl13   Cl   0.030238840404102   0.144289546903192   0.708677917279727   1.0
N14   N   0.378711656745013   0.458889016628653   0.366446163250241   1.0
Pb15   Pb   0.030060577815338   0.604619440493829   0.951926219824514   1.0




# HOIP entry ID:                    1020
# Khazana ID:                       2870
# Organic cation source:            B.Saparov et al., Chem. Rev. 116, 4558 (2016)
# Label:                            Ethylammonium Lead Chloride
# Material class:                   Hybrid organic-inorganic perovskite ( MC_ino )
# Geometry class:                   Bulk crystalline materials ( GC_cry )
# Organic cation chemical formula:  CH3CH2NH3
# Number of atom types:             5
# Total number of atoms:            15
# Atom types:                       C H N  Pb Cl
# Number of each atom:              2 8 1  1 3
# Bandgap, HSE06 (eV):              4.3325
# Bandgap, GGA (eV):                3.3189
# Kpoint for VBM:                   0.5, 0.2778, 0.5
# Kpoint for CBM:                   0.4286, 0, 0.4
# Dielectric constant, electronic:  3.3846
# Dielectric constant, ionic:       8.1246
# Dielectric constant, total:       11.5092
# Refractive index:                 1.8397
# Atomization energy (eV/atom):     -4.3909
# Relative energy1 (eV/atom):       0.03
# Relative energy2 (eV/atom):       0.3302
# Volume of the unit cell (A^3):    198.66
# Density (g/cm^3):                 3.0063
# Tool:                             VASP
# Pseudopotential:                  PAW
# Note:                             ENCUT=400eV, k-spacing_relax=0.20/Angstrom, k-spacing_bandgap=0.15/Angstrom
# Created by:                       C.Kim, T.D.Huan, S.Krishnan, R. Ramprasad