data_1
_audit_creation_method   'Generated by vasp2cif'
_cell_length_a    8.68771156313
_cell_length_b    4.12409548286
_cell_length_c    5.44112627631
_cell_angle_alpha    90.3312484424
_cell_angle_beta    89.90540852
_cell_angle_gamma    90.3015961995

_symmetry_space_group_name_H-M    'P 1'
loop_
_atom_site_label
_atom_site_type_symbol
_atom_site_fract_x
_atom_site_fract_y
_atom_site_fract_z
_atom_site_occupancy
C1   C   0.374909941291726   0.766883091355382   0.410804086066648   1.0
C2   C   0.509347774821919   0.532669608164845   0.414636294103857   1.0
H3   H   0.509456067648976   0.374820755696568   0.252799862156238   1.0
H4   H   0.615650882800765   0.675086747920531   0.413039923284259   1.0
H5   H   0.207858361501685   0.441444711511608   0.260115811811026   1.0
H6   H   0.130262071039013   0.752148234997136   0.413991525400775   1.0
H7   H   0.374691060086178   0.922843154449552   0.572784843942408   1.0
H8   H   0.508692572468085   0.385768953597619   0.581043645344252   1.0
H9   H   0.374757971677035   0.911038137378775   0.243911380260940   1.0
H10   H   0.208900393512089   0.447306745697190   0.569995248610340   1.0
Cl11   Cl   0.903201597167303   0.146490452295119   0.413883223070037   1.0
Cl12   Cl   0.170155521063236   0.120734059771479   0.912986522963678   1.0
Cl13   Cl   0.635280664621604   0.964366251233265   0.913288843056513   1.0
N14   N   0.220364408832381   0.589395520439624   0.414006384905981   1.0
Pb15   Pb   0.864650711467952   0.426343575491316   0.915262405023029   1.0




# HOIP entry ID:                    1021
# Khazana ID:                       2871
# Organic cation source:            B.Saparov et al., Chem. Rev. 116, 4558 (2016)
# Label:                            Ethylammonium Lead Chloride
# Material class:                   Hybrid organic-inorganic perovskite ( MC_ino )
# Geometry class:                   Bulk crystalline materials ( GC_cry )
# Organic cation chemical formula:  CH3CH2NH3
# Number of atom types:             5
# Total number of atoms:            15
# Atom types:                       C H N  Pb Cl
# Number of each atom:              2 8 1  1 3
# Bandgap, HSE06 (eV):              4.4675
# Bandgap, GGA (eV):                3.4288
# Kpoint for VBM:                   -0.375, 0.15, 0.1429
# Kpoint for CBM:                   0, 0.5, 0.2143
# Dielectric constant, electronic:  3.3726
# Dielectric constant, ionic:       6.5613
# Dielectric constant, total:       9.9339
# Refractive index:                 1.8365
# Atomization energy (eV/atom):     -4.3895
# Relative energy1 (eV/atom):       0.0313
# Relative energy2 (eV/atom):       0.3315
# Volume of the unit cell (A^3):    194.94
# Density (g/cm^3):                 3.0637
# Tool:                             VASP
# Pseudopotential:                  PAW
# Note:                             ENCUT=400eV, k-spacing_relax=0.20/Angstrom, k-spacing_bandgap=0.15/Angstrom
# Created by:                       C.Kim, T.D.Huan, S.Krishnan, R. Ramprasad