data_1
_audit_creation_method   'Generated by vasp2cif'
_cell_length_a    10.6449717325
_cell_length_b    4.53612895895
_cell_length_c    4.29198465831
_cell_angle_alpha    90.1789240236
_cell_angle_beta    89.5258842774
_cell_angle_gamma    85.717541824

_symmetry_space_group_name_H-M    'P 1'
loop_
_atom_site_label
_atom_site_type_symbol
_atom_site_fract_x
_atom_site_fract_y
_atom_site_fract_z
_atom_site_occupancy
C1   C   0.597751116350452   0.717020435226196   0.549380935974611   1.0
C2   C   0.509129691022572   0.471865289430504   0.516251997999106   1.0
H3   H   0.516320590675001   0.320908985821852   0.714030805721208   1.0
H4   H   0.412423021686777   0.569406924830616   0.508805804736610   1.0
H5   H   0.750838102049215   0.447069321851323   0.741196904106360   1.0
H6   H   0.793475685736773   0.761472406135397   0.584562099213649   1.0
H7   H   0.590706771039805   0.869892906978464   0.354192122275251   1.0
H8   H   0.527393546825415   0.347157449603777   0.300189036282824   1.0
H9   H   0.580739808499786   0.841549839813034   0.765007111954205   1.0
H10   H   0.760328903712271   0.475237550363303   0.358016918409021   1.0
Cl11   Cl   0.073188802451426   0.560115399348774   0.539841157929644   1.0
Cl12   Cl   0.809712302015619   0.083935729250982   0.053028992390217   1.0
Cl13   Cl   0.343954755357309   0.991010084482333   0.034924385393069   1.0
N14   N   0.734577407900460   0.593715726923584   0.558044179333528   1.0
Pb15   Pb   0.099129494677136   0.058291949939814   0.037827548280760   1.0




# HOIP entry ID:                    1022
# Khazana ID:                       2872
# Organic cation source:            B.Saparov et al., Chem. Rev. 116, 4558 (2016)
# Label:                            Ethylammonium Lead Chloride
# Material class:                   Hybrid organic-inorganic perovskite ( MC_ino )
# Geometry class:                   Bulk crystalline materials ( GC_cry )
# Organic cation chemical formula:  CH3CH2NH3
# Number of atom types:             5
# Total number of atoms:            15
# Atom types:                       C H N  Pb Cl
# Number of each atom:              2 8 1  1 3
# Bandgap, HSE06 (eV):              2.8744
# Bandgap, GGA (eV):                2.0233
# Kpoint for VBM:                   0.5, 0.5, 0
# Kpoint for CBM:                   0.5, 0.0556, 0.5
# Dielectric constant, electronic:  3.3058
# Dielectric constant, ionic:       10.0013
# Dielectric constant, total:       13.3071
# Refractive index:                 1.8182
# Atomization energy (eV/atom):     -4.3832
# Relative energy1 (eV/atom):       0.0377
# Relative energy2 (eV/atom):       0.3379
# Volume of the unit cell (A^3):    206.66
# Density (g/cm^3):                 2.8899
# Tool:                             VASP
# Pseudopotential:                  PAW
# Note:                             ENCUT=400eV, k-spacing_relax=0.20/Angstrom, k-spacing_bandgap=0.15/Angstrom
# Created by:                       C.Kim, T.D.Huan, S.Krishnan, R. Ramprasad