data_1
_audit_creation_method   'Generated by vasp2cif'
_cell_length_a    9.38200223437
_cell_length_b    4.48801752719
_cell_length_c    5.66634839281
_cell_angle_alpha    89.5251226033
_cell_angle_beta    97.9717268521
_cell_angle_gamma    119.40660662

_symmetry_space_group_name_H-M    'P 1'
loop_
_atom_site_label
_atom_site_type_symbol
_atom_site_fract_x
_atom_site_fract_y
_atom_site_fract_z
_atom_site_occupancy
C1   C   0.617247140395439   0.681297046399990   0.487643843236655   1.0
C2   C   0.497906621649778   0.580623838784610   0.669029422563267   1.0
H3   H   0.386948927347557   0.332779098558229   0.614609373682309   1.0
H4   H   0.557635741118972   0.566001100750053   0.845484001439068   1.0
H5   H   0.713102408801733   0.366725527991496   0.621646402116780   1.0
H6   H   0.748985784713545   0.470907357439738   0.342343767141077   1.0
H7   H   0.562372494561690   0.704997570523497   0.310335570769047   1.0
H8   H   0.457686067532253   0.769535427885059   0.685936913076097   1.0
H9   H   0.734138579993503   0.915095364824668   0.544720230996178   1.0
H10   H   0.557266212127927   0.184779886028292   0.382568492639241   1.0
Cl11   Cl   0.045913211526944   0.039137576687013   0.535027969669459   1.0
Cl12   Cl   0.830881643187985   0.375012516646507   0.996009486112764   1.0
Cl13   Cl   0.329160304188448   0.892911460398010   0.104707453590317   1.0
N14   N   0.662895299129535   0.406027360186488   0.457192342480184   1.0
Pb15   Pb   0.088549563724767   0.147298866896350   0.047064730487627   1.0




# HOIP entry ID:                    1023
# Khazana ID:                       2873
# Organic cation source:            B.Saparov et al., Chem. Rev. 116, 4558 (2016)
# Label:                            Ethylammonium Lead Chloride
# Material class:                   Hybrid organic-inorganic perovskite ( MC_ino )
# Geometry class:                   Bulk crystalline materials ( GC_cry )
# Organic cation chemical formula:  CH3CH2NH3
# Number of atom types:             5
# Total number of atoms:            15
# Atom types:                       C H N  Pb Cl
# Number of each atom:              2 8 1  1 3
# Bandgap, HSE06 (eV):              4.0595
# Bandgap, GGA (eV):                3.0841
# Kpoint for VBM:                   0.5, 0.5, 0.5
# Kpoint for CBM:                   0.25, 0, 0.3571
# Dielectric constant, electronic:  3.324
# Dielectric constant, ionic:       10.1261
# Dielectric constant, total:       13.4501
# Refractive index:                 1.8232
# Atomization energy (eV/atom):     -4.4019
# Relative energy1 (eV/atom):       0.019
# Relative energy2 (eV/atom):       0.3192
# Volume of the unit cell (A^3):    205.35
# Density (g/cm^3):                 2.9083
# Tool:                             VASP
# Pseudopotential:                  PAW
# Note:                             ENCUT=400eV, k-spacing_relax=0.20/Angstrom, k-spacing_bandgap=0.15/Angstrom
# Created by:                       C.Kim, T.D.Huan, S.Krishnan, R. Ramprasad