data_1
_audit_creation_method   'Generated by vasp2cif'
_cell_length_a    5.82835088262
_cell_length_b    5.79929003456
_cell_length_c    7.17042635384
_cell_angle_alpha    73.6790627245
_cell_angle_beta    87.4307919843
_cell_angle_gamma    86.2309126443

_symmetry_space_group_name_H-M    'P 1'
loop_
_atom_site_label
_atom_site_type_symbol
_atom_site_fract_x
_atom_site_fract_y
_atom_site_fract_z
_atom_site_occupancy
C1   C   0.682610241075614   0.675001537489546   0.390354835390765   1.0
C2   C   0.619443191762715   0.434258625491125   0.366383982815057   1.0
C3   C   0.628164922161931   0.440004893747317   0.151766174194362   1.0
H4   H   0.794115046545051   0.497810917469026   0.082974990844147   1.0
H5   H   0.603614854608612   0.261756829944409   0.136841805702646   1.0
H6   H   0.446842172438286   0.390999913587763   0.428917075378742   1.0
H7   H   0.741086116001308   0.292527511143590   0.445788264975184   1.0
H8   H   0.494725596226393   0.628180693675843   0.656986857464361   1.0
H9   H   0.686674619524215   0.839188901599688   0.623447121900708   1.0
H10   H   0.492388229049323   0.562579570758490   0.071653711104515   1.0
H11   H   0.860750590605133   0.712956178302699   0.346195613998127   1.0
H12   H   0.569696919743161   0.823964157102335   0.310378466713112   1.0
H13   H   0.776473389328154   0.552965585406545   0.684695615972931   1.0
Cl14   Cl   0.687394527994607   0.058765292408775   0.848044979676403   1.0
Cl15   Cl   0.153513819933432   0.533837783802747   0.790988530553085   1.0
Cl16   Cl   0.152132906813740   0.054260835426769   0.312376072083953   1.0
N17   N   0.658110710722224   0.674684198729081   0.601848162658894   1.0
Pb18   Pb   0.173342145466187   0.036346573914266   0.939227738573137   1.0




# HOIP entry ID:                    1024
# Khazana ID:                       2874
# Organic cation source:            S.Kataoka et al., J. Am. Chem. Soc. 137, 4158 (2015)
# Label:                            Propylammonium Lead Chloride
# Material class:                   Hybrid organic-inorganic perovskite ( MC_ino )
# Geometry class:                   Bulk crystalline materials ( GC_cry )
# Organic cation chemical formula:  CH3CH2CH2NH3
# Number of atom types:             5
# Total number of atoms:            18
# Atom types:                       C H N  Pb Cl
# Number of each atom:              3 10 1  1 3
# Bandgap, HSE06 (eV):              4.2491
# Bandgap, GGA (eV):                3.2954
# Kpoint for VBM:                   0.5, 0.5, 0
# Kpoint for CBM:                   0.3571, 0.2143, 0.5
# Dielectric constant, electronic:  3.132
# Dielectric constant, ionic:       7.1826
# Dielectric constant, total:       10.3147
# Refractive index:                 1.7698
# Atomization energy (eV/atom):     -4.5059
# Relative energy1 (eV/atom):       -0.0301
# Relative energy2 (eV/atom):       0.2201
# Volume of the unit cell (A^3):    232
# Density (g/cm^3):                 2.6747
# Tool:                             VASP
# Pseudopotential:                  PAW
# Note:                             ENCUT=400eV, k-spacing_relax=0.20/Angstrom, k-spacing_bandgap=0.15/Angstrom
# Created by:                       C.Kim, T.D.Huan, S.Krishnan, R. Ramprasad