data_1
_audit_creation_method   'Generated by vasp2cif'
_cell_length_a    5.74230038215
_cell_length_b    5.73856901587
_cell_length_c    7.40823860424
_cell_angle_alpha    102.675077993
_cell_angle_beta    80.7203954358
_cell_angle_gamma    89.7191597114

_symmetry_space_group_name_H-M    'P 1'
loop_
_atom_site_label
_atom_site_type_symbol
_atom_site_fract_x
_atom_site_fract_y
_atom_site_fract_z
_atom_site_occupancy
C1   C   0.418349426529574   0.684190426208154   0.600102629222050   1.0
C2   C   0.325391697345957   0.490901119000433   0.701826093015121   1.0
C3   C   0.440073055915292   0.504649739882375   0.876475302220342   1.0
H4   H   0.386428058097060   0.671027614691610   0.980071940284951   1.0
H5   H   0.389268661101838   0.355704978227912   0.941960075329547   1.0
H6   H   0.364709368469939   0.314851300242445   0.606746484468509   1.0
H7   H   0.132335815641973   0.511037701679655   0.740413993927277   1.0
H8   H   0.312234429651156   0.513754616918753   0.344788358776874   1.0
H9   H   0.360117047015166   0.804578680597920   0.357810143087278   1.0
H10   H   0.632731493197248   0.495638013438587   0.840074671557041   1.0
H11   H   0.386850506216149   0.863453457338650   0.689835268796969   1.0
H12   H   0.606586306483408   0.657173065935254   0.545480250173320   1.0
H13   H   0.117357571199371   0.726125962623755   0.479383901382405   1.0
Cl14   Cl   0.372210374422949   0.114499390110730   0.215665516938543   1.0
Cl15   Cl   0.863762839623867   0.603488114929078   0.191669583224808   1.0
Cl16   Cl   0.889835882799893   0.030410935219635   0.722736025703746   1.0
N17   N   0.294588308576898   0.681211384301122   0.433874497185926   1.0
Pb18   Pb   0.877569157712330   0.089193498653877   0.096835264705369   1.0




# HOIP entry ID:                    1025
# Khazana ID:                       2875
# Organic cation source:            S.Kataoka et al., J. Am. Chem. Soc. 137, 4158 (2015)
# Label:                            Propylammonium Lead Chloride
# Material class:                   Hybrid organic-inorganic perovskite ( MC_ino )
# Geometry class:                   Bulk crystalline materials ( GC_cry )
# Organic cation chemical formula:  CH3CH2CH2NH3
# Number of atom types:             5
# Total number of atoms:            18
# Atom types:                       C H N  Pb Cl
# Number of each atom:              3 10 1  1 3
# Bandgap, HSE06 (eV):              4.0077
# Bandgap, GGA (eV):                2.9727
# Kpoint for VBM:                   0.5, 0.5, 0
# Kpoint for CBM:                   0.3947, 0.3947, 0.3947
# Dielectric constant, electronic:  3.1225
# Dielectric constant, ionic:       4.8749
# Dielectric constant, total:       7.9974
# Refractive index:                 1.7671
# Atomization energy (eV/atom):     -4.5121
# Relative energy1 (eV/atom):       -0.0363
# Relative energy2 (eV/atom):       0.2139
# Volume of the unit cell (A^3):    234.85
# Density (g/cm^3):                 2.6422
# Tool:                             VASP
# Pseudopotential:                  PAW
# Note:                             ENCUT=400eV, k-spacing_relax=0.20/Angstrom, k-spacing_bandgap=0.15/Angstrom
# Created by:                       C.Kim, T.D.Huan, S.Krishnan, R. Ramprasad