data_1
_audit_creation_method   'Generated by vasp2cif'
_cell_length_a    5.78487151581
_cell_length_b    5.78342964083
_cell_length_c    7.31816338389
_cell_angle_alpha    103.074220978
_cell_angle_beta    80.3135736769
_cell_angle_gamma    90.7200200418

_symmetry_space_group_name_H-M    'P 1'
loop_
_atom_site_label
_atom_site_type_symbol
_atom_site_fract_x
_atom_site_fract_y
_atom_site_fract_z
_atom_site_occupancy
C1   C   0.505909536205486   0.612309091519968   0.615968387445086   1.0
C2   C   0.404392082137235   0.429095746278968   0.725905361527460   1.0
C3   C   0.537371663587550   0.428710137577426   0.889930706982490   1.0
H4   H   0.515286031679345   0.599485947781581   0.993003751210495   1.0
H5   H   0.473653042271344   0.290607432031024   0.964114566353381   1.0
H6   H   0.418071408080529   0.252826235647895   0.629478670181115   1.0
H7   H   0.216855561265433   0.467731548187238   0.779902475267193   1.0
H8   H   0.397529948580413   0.439778776204598   0.358908933503976   1.0
H9   H   0.445802338854307   0.729058987801551   0.371127291835975   1.0
H10   H   0.724945298957074   0.393826122866336   0.837192641292830   1.0
H11   H   0.484902003795646   0.793214329375203   0.703251673862319   1.0
H12   H   0.691279655663479   0.577046659052193   0.557470103654957   1.0
H13   H   0.205421954367623   0.649616996652142   0.496420748772657   1.0
Cl14   Cl   0.460337488941882   0.040647855173056   0.232806348101015   1.0
Cl15   Cl   0.955988371498059   0.532865171563152   0.205035586976813   1.0
Cl16   Cl   0.983937019506634   0.951161808577986   0.743804150955022   1.0
N17   N   0.381138819377327   0.606624765343533   0.448891801614252   1.0
Pb18   Pb   0.965117775230588   0.019662388366101   0.122976800463178   1.0




# HOIP entry ID:                    1026
# Khazana ID:                       2876
# Organic cation source:            S.Kataoka et al., J. Am. Chem. Soc. 137, 4158 (2015)
# Label:                            Propylammonium Lead Chloride
# Material class:                   Hybrid organic-inorganic perovskite ( MC_ino )
# Geometry class:                   Bulk crystalline materials ( GC_cry )
# Organic cation chemical formula:  CH3CH2CH2NH3
# Number of atom types:             5
# Total number of atoms:            18
# Atom types:                       C H N  Pb Cl
# Number of each atom:              3 10 1  1 3
# Bandgap, HSE06 (eV):              3.9499
# Bandgap, GGA (eV):                2.8993
# Kpoint for VBM:                   0.5, 0.5, 0
# Kpoint for CBM:                   0.3947, 0.3947, 0.3947
# Dielectric constant, electronic:  3.1392
# Dielectric constant, ionic:       5.5289
# Dielectric constant, total:       8.6681
# Refractive index:                 1.7718
# Atomization energy (eV/atom):     -4.5123
# Relative energy1 (eV/atom):       -0.0365
# Relative energy2 (eV/atom):       0.2137
# Volume of the unit cell (A^3):    235.01
# Density (g/cm^3):                 2.6404
# Tool:                             VASP
# Pseudopotential:                  PAW
# Note:                             ENCUT=400eV, k-spacing_relax=0.20/Angstrom, k-spacing_bandgap=0.15/Angstrom
# Created by:                       C.Kim, T.D.Huan, S.Krishnan, R. Ramprasad