data_1
_audit_creation_method   'Generated by vasp2cif'
_cell_length_a    6.14572875115
_cell_length_b    5.89189831969
_cell_length_c    6.15950235489
_cell_angle_alpha    97.7651222366
_cell_angle_beta    81.2484907937
_cell_angle_gamma    96.2301394757

_symmetry_space_group_name_H-M    'P 1'
loop_
_atom_site_label
_atom_site_type_symbol
_atom_site_fract_x
_atom_site_fract_y
_atom_site_fract_z
_atom_site_occupancy
C1   C   0.495190470544392   0.580628026985282   0.621357424851562   1.0
C2   C   0.495807983798494   0.420655237933740   0.796151739265276   1.0
C3   C   0.624797521849360   0.211449975892928   0.708674739530654   1.0
H4   H   0.796770570456138   0.266113861799889   0.648296713310325   1.0
H5   H   0.624755482411455   0.104749302427739   0.839350193813276   1.0
H6   H   0.325002008746947   0.368518700745726   0.865200043421945   1.0
H7   H   0.572713259498896   0.521378887297422   0.931741742567258   1.0
H8   H   0.386425404931503   0.315032449531344   0.375140360092017   1.0
H9   H   0.351086538117454   0.583759939647003   0.331310234427789   1.0
H10   H   0.552105026941535   0.104205070291238   0.573941795839513   1.0
H11   H   0.431826743887180   0.743892397809030   0.691431787198780   1.0
H12   H   0.659586976676489   0.610100478342970   0.529642563002515   1.0
H13   H   0.182833841681644   0.461131529802257   0.524637078944702   1.0
Cl14   Cl   0.398463811184534   0.934672778962589   0.188872778346255   1.0
Cl15   Cl   0.930799278659135   0.401456663393842   0.167412056282808   1.0
Cl16   Cl   0.017076405422115   0.849891273009942   0.710785610259511   1.0
N17   N   0.345066341644212   0.475240560241598   0.451412593325692   1.0
Pb18   Pb   0.938292333548537   0.906252865885545   0.157310545520065   1.0




# HOIP entry ID:                    1027
# Khazana ID:                       2877
# Organic cation source:            S.Kataoka et al., J. Am. Chem. Soc. 137, 4158 (2015)
# Label:                            Propylammonium Lead Chloride
# Material class:                   Hybrid organic-inorganic perovskite ( MC_ino )
# Geometry class:                   Bulk crystalline materials ( GC_cry )
# Organic cation chemical formula:  CH3CH2CH2NH3
# Number of atom types:             5
# Total number of atoms:            18
# Atom types:                       C H N  Pb Cl
# Number of each atom:              3 10 1  1 3
# Bandgap, HSE06 (eV):              3.8444
# Bandgap, GGA (eV):                2.7341
# Kpoint for VBM:                   0.5, 0.5, 0.5
# Kpoint for CBM:                   0.5, 0.5, 0.5
# Dielectric constant, electronic:  3.4421
# Dielectric constant, ionic:       8.9006
# Dielectric constant, total:       12.3427
# Refractive index:                 1.8553
# Atomization energy (eV/atom):     -4.5111
# Relative energy1 (eV/atom):       -0.0353
# Relative energy2 (eV/atom):       0.2148
# Volume of the unit cell (A^3):    217.53
# Density (g/cm^3):                 2.8526
# Tool:                             VASP
# Pseudopotential:                  PAW
# Note:                             ENCUT=400eV, k-spacing_relax=0.20/Angstrom, k-spacing_bandgap=0.15/Angstrom
# Created by:                       C.Kim, T.D.Huan, S.Krishnan, R. Ramprasad