data_1
_audit_creation_method   'Generated by vasp2cif'
_cell_length_a    6.15225868792
_cell_length_b    6.15662493585
_cell_length_c    5.98773953757
_cell_angle_alpha    77.1756693317
_cell_angle_beta    89.5196521772
_cell_angle_gamma    83.7849350022

_symmetry_space_group_name_H-M    'P 1'
loop_
_atom_site_label
_atom_site_type_symbol
_atom_site_fract_x
_atom_site_fract_y
_atom_site_fract_z
_atom_site_occupancy
C1   C   0.591955277402590   0.601410122433293   0.365725632553996   1.0
C2   C   0.625556243846539   0.410648395839722   0.240627715592474   1.0
C3   C   0.413524693229839   0.309686876578752   0.210179030193082   1.0
H4   H   0.285507448736077   0.436557502324661   0.121138872905327   1.0
H5   H   0.441683656048575   0.179714123322242   0.112517635485965   1.0
H6   H   0.749396744544747   0.280156374004655   0.331304829542098   1.0
H7   H   0.696111528143902   0.477827949489487   0.074376203841958   1.0
H8   H   0.579556939388169   0.371429481712902   0.686051591593376   1.0
H9   H   0.332783369700138   0.495685665695120   0.593162451985322   1.0
H10   H   0.347328343748977   0.230679729142764   0.374554651495323   1.0
H11   H   0.744801314142407   0.664750606062313   0.395130628744965   1.0
H12   H   0.476651387937153   0.739863982660268   0.276915577412773   1.0
H13   H   0.510579734170328   0.639949309217094   0.696567695768124   1.0
Cl14   Cl   0.571589371652294   0.952272353635074   0.800455714138160   1.0
Cl15   Cl   0.007934928977114   0.379736077170350   0.751975695348499   1.0
Cl16   Cl   0.055313092208394   0.903382134439646   0.316146448388004   1.0
N17   N   0.495783665185847   0.520716713621844   0.601468186114850   1.0
Pb18   Pb   0.036952260936964   0.924232602649852   0.845081438895861   1.0




# HOIP entry ID:                    1028
# Khazana ID:                       2878
# Organic cation source:            S.Kataoka et al., J. Am. Chem. Soc. 137, 4158 (2015)
# Label:                            Propylammonium Lead Chloride
# Material class:                   Hybrid organic-inorganic perovskite ( MC_ino )
# Geometry class:                   Bulk crystalline materials ( GC_cry )
# Organic cation chemical formula:  CH3CH2CH2NH3
# Number of atom types:             5
# Total number of atoms:            18
# Atom types:                       C H N  Pb Cl
# Number of each atom:              3 10 1  1 3
# Bandgap, HSE06 (eV):              3.7596
# Bandgap, GGA (eV):                2.8387
# Kpoint for VBM:                   0.5, 0.5, 0.5
# Kpoint for CBM:                   0.5, 0.5, 0.5
# Dielectric constant, electronic:  3.4052
# Dielectric constant, ionic:       6.8791
# Dielectric constant, total:       10.2843
# Refractive index:                 1.8453
# Atomization energy (eV/atom):     -4.5106
# Relative energy1 (eV/atom):       -0.0348
# Relative energy2 (eV/atom):       0.2154
# Volume of the unit cell (A^3):    219.81
# Density (g/cm^3):                 2.823
# Tool:                             VASP
# Pseudopotential:                  PAW
# Note:                             ENCUT=400eV, k-spacing_relax=0.20/Angstrom, k-spacing_bandgap=0.15/Angstrom
# Created by:                       C.Kim, T.D.Huan, S.Krishnan, R. Ramprasad