data_1
_audit_creation_method   'Generated by vasp2cif'
_cell_length_a    5.75684117795
_cell_length_b    4.21003601484
_cell_length_c    10.3181369056
_cell_angle_alpha    89.0817249647
_cell_angle_beta    115.628481665
_cell_angle_gamma    99.4745263562

_symmetry_space_group_name_H-M    'P 1'
loop_
_atom_site_label
_atom_site_type_symbol
_atom_site_fract_x
_atom_site_fract_y
_atom_site_fract_z
_atom_site_occupancy
C1   C   0.009968330694564   0.580848683442009   0.448499792216880   1.0
C2   C   0.732070326727190   0.639961422569961   0.407567808212289   1.0
C3   C   0.612696320304603   0.781984183176481   0.259995788190518   1.0
H4   H   0.737533002148439   0.999607357593729   0.252616882445757   1.0
H5   H   0.423462368100053   0.843593488747586   0.239296855365642   1.0
H6   H   0.608114975876639   0.411519504651238   0.406677381905143   1.0
H7   H   0.734201822418384   0.799871096203967   0.491173375590134   1.0
H8   H   0.983924945577917   0.271514796489469   0.608886917439964   1.0
H9   H   0.173616494458869   0.620385506096739   0.679100014224017   1.0
H10   H   0.014763581069483   0.407954844270524   0.372430242168180   1.0
H11   H   0.580490468176494   0.607365729020260   0.173867805186757   1.0
H12   H   0.145389337195062   0.801663875696259   0.454315735616991   1.0
H13   H   0.287089816175639   0.346517232920464   0.616377855149098   1.0
Cl14   Cl   0.287214170795847   0.899960300765456   0.880439007584337   1.0
Cl15   Cl   0.644038231336856   0.151041093513102   0.677556862111506   1.0
Cl16   Cl   0.048537623489900   0.237239442967115   0.130778137501470   1.0
N17   N   0.121473186938261   0.444928998008976   0.596513984328826   1.0
Pb18   Pb   0.832174998515800   0.709292443866511   0.924145554762323   1.0




# HOIP entry ID:                    1030
# Khazana ID:                       2880
# Organic cation source:            S.Kataoka et al., J. Am. Chem. Soc. 137, 4158 (2015)
# Label:                            Propylammonium Lead Chloride
# Material class:                   Hybrid organic-inorganic perovskite ( MC_ino )
# Geometry class:                   Bulk crystalline materials ( GC_cry )
# Organic cation chemical formula:  CH3CH2CH2NH3
# Number of atom types:             5
# Total number of atoms:            18
# Atom types:                       C H N  Pb Cl
# Number of each atom:              3 10 1  1 3
# Bandgap, HSE06 (eV):              4.8088
# Bandgap, GGA (eV):                3.771
# Kpoint for VBM:                   0.5, -0.2, 0.25
# Kpoint for CBM:                   0.5, 0, 0.5
# Dielectric constant, electronic:  3.2265
# Dielectric constant, ionic:       5.379
# Dielectric constant, total:       8.6055
# Refractive index:                 1.7962
# Atomization energy (eV/atom):     -4.5126
# Relative energy1 (eV/atom):       -0.0368
# Relative energy2 (eV/atom):       0.2134
# Volume of the unit cell (A^3):    221.97
# Density (g/cm^3):                 2.7955
# Tool:                             VASP
# Pseudopotential:                  PAW
# Note:                             ENCUT=400eV, k-spacing_relax=0.20/Angstrom, k-spacing_bandgap=0.15/Angstrom
# Created by:                       C.Kim, T.D.Huan, S.Krishnan, R. Ramprasad