data_1
_audit_creation_method   'Generated by vasp2cif'
_cell_length_a    7.24488081487
_cell_length_b    4.25703787317
_cell_length_c    9.51785425122
_cell_angle_alpha    107.045021948
_cell_angle_beta    123.530196998
_cell_angle_gamma    72.2117817801

_symmetry_space_group_name_H-M    'P 1'
loop_
_atom_site_label
_atom_site_type_symbol
_atom_site_fract_x
_atom_site_fract_y
_atom_site_fract_z
_atom_site_occupancy
C1   C   0.085782888539413   0.422560194113331   0.538277000639759   1.0
C2   C   0.289967360825805   0.593351868827718   0.660909675164241   1.0
C3   C   0.463232919466421   0.385372255943253   0.804424809902947   1.0
H4   H   0.387857532714151   0.347644746767017   0.870184405070383   1.0
H5   H   0.606191755168119   0.508653375856056   0.898401703728624   1.0
H6   H   0.364858061932026   0.620971807250676   0.592748721248576   1.0
H7   H   0.238375947532923   0.841808354051942   0.716854634824607   1.0
H8   H   0.886836616495025   0.731246976129867   0.340233087568301   1.0
H9   H   0.837968632484440   0.863204953476185   0.503852654191569   1.0
H10   H   0.116991114923522   0.214933738711977   0.450360093261274   1.0
H11   H   0.526863305120173   0.137624146112295   0.755342635374433   1.0
H12   H   0.038638261929165   0.334546408549748   0.608805050935565   1.0
H13   H   0.738143463259391   0.533093903870785   0.361378914816981   1.0
Cl14   Cl   0.841772234157972   0.966199535579563   0.139297249237721   1.0
Cl15   Cl   0.438201521574435   0.301279159796472   0.313644624606432   1.0
Cl16   Cl   0.939064292960438   0.216834984364020   0.802352584619136   1.0
N17   N   0.874368325014728   0.654480555940246   0.428416986472840   1.0
Pb18   Pb   0.165675765901803   0.770013034658994   0.057205168336623   1.0




# HOIP entry ID:                    1031
# Khazana ID:                       2881
# Organic cation source:            S.Kataoka et al., J. Am. Chem. Soc. 137, 4158 (2015)
# Label:                            Propylammonium Lead Chloride
# Material class:                   Hybrid organic-inorganic perovskite ( MC_ino )
# Geometry class:                   Bulk crystalline materials ( GC_cry )
# Organic cation chemical formula:  CH3CH2CH2NH3
# Number of atom types:             5
# Total number of atoms:            18
# Atom types:                       C H N  Pb Cl
# Number of each atom:              3 10 1  1 3
# Bandgap, HSE06 (eV):              4.7081
# Bandgap, GGA (eV):                3.6178
# Kpoint for VBM:                   0.1667, 0.2, 0.3
# Kpoint for CBM:                   0, 0, 0.5
# Dielectric constant, electronic:  3.0694
# Dielectric constant, ionic:       5.4168
# Dielectric constant, total:       8.4862
# Refractive index:                 1.752
# Atomization energy (eV/atom):     -4.5031
# Relative energy1 (eV/atom):       -0.0272
# Relative energy2 (eV/atom):       0.2229
# Volume of the unit cell (A^3):    230.12
# Density (g/cm^3):                 2.6965
# Tool:                             VASP
# Pseudopotential:                  PAW
# Note:                             ENCUT=400eV, k-spacing_relax=0.20/Angstrom, k-spacing_bandgap=0.15/Angstrom
# Created by:                       C.Kim, T.D.Huan, S.Krishnan, R. Ramprasad