data_1
_audit_creation_method   'Generated by vasp2cif'
_cell_length_a    6.39153069764
_cell_length_b    7.02374877711
_cell_length_c    5.84868268258
_cell_angle_alpha    83.1874409032
_cell_angle_beta    93.976616018
_cell_angle_gamma    110.566462474

_symmetry_space_group_name_H-M    'P 1'
loop_
_atom_site_label
_atom_site_type_symbol
_atom_site_fract_x
_atom_site_fract_y
_atom_site_fract_z
_atom_site_occupancy
C1   C   0.213008523652022   0.697736709707215   0.534799947246320   1.0
C2   C   0.415385215348998   0.255414958477303   0.419232918016391   1.0
C3   C   0.323034356295835   0.429419673252880   0.374200528077637   1.0
C4   C   0.282902397392924   0.510365330879488   0.594005565073594   1.0
H5   H   0.751372385593712   0.441753863711469   0.385039584399855   1.0
H6   H   0.718788446241383   0.211798319474191   0.524275095062855   1.0
H7   H   0.677237671109104   0.391615527708225   0.663448668760353   1.0
H8   H   0.347585181719026   0.821166022845212   0.445717904614518   1.0
H9   H   0.065267334464792   0.663796100367961   0.419523102333024   1.0
H10   H   0.176101103216020   0.750770720406742   0.689171194451951   1.0
H11   H   0.164483925801520   0.373738500946573   0.275634399693743   1.0
H12   H   0.434739695826195   0.555009814187152   0.261963381174937   1.0
H13   H   0.153286296707549   0.388298306970661   0.694779425417387   1.0
H14   H   0.433963735477263   0.551562846515409   0.705700672512442   1.0
H15   H   0.323384051509969   0.136598641374235   0.548965326485565   1.0
H16   H   0.418846586194320   0.186394636945337   0.262761028517787   1.0
Cl17   Cl   0.506621723297158   0.980800128984598   0.970996987018957   1.0
Cl18   Cl   0.846957263469086   0.960085136067953   0.494440625449108   1.0
Cl19   Cl   0.816445947047576   0.548284272051134   0.002055836827232   1.0
N20   N   0.657507486322586   0.331733764194261   0.506892306399180   1.0
Pb21   Pb   0.920990673313028   0.959986724932001   0.988575502467143   1.0




# HOIP entry ID:                    1036
# Khazana ID:                       2886
# Organic cation source:            H. Hu et al., Sci. Rep. 6, 33546 (2016)
# Label:                            Butylammonium Lead Chloride
# Material class:                   Hybrid organic-inorganic perovskite ( MC_ino )
# Geometry class:                   Bulk crystalline materials ( GC_cry )
# Organic cation chemical formula:  CH3CH2CH2CH2NH3
# Number of atom types:             5
# Total number of atoms:            21
# Atom types:                       C H N  Pb Cl
# Number of each atom:              4 12 1  1 3
# Bandgap, HSE06 (eV):              4.5045
# Bandgap, GGA (eV):                3.4287
# Kpoint for VBM:                   0.5, 0.1667, 0.3571
# Kpoint for CBM:                   0.5, 0.5, 0.5
# Dielectric constant, electronic:  3.1973
# Dielectric constant, ionic:       5.7644
# Dielectric constant, total:       8.9617
# Refractive index:                 1.7881
# Atomization energy (eV/atom):     -4.5867
# Relative energy1 (eV/atom):       -0.0716
# Relative energy2 (eV/atom):       0.1428
# Volume of the unit cell (A^3):    243.98
# Density (g/cm^3):                 2.6388
# Tool:                             VASP
# Pseudopotential:                  PAW
# Note:                             ENCUT=400eV, k-spacing_relax=0.20/Angstrom, k-spacing_bandgap=0.15/Angstrom
# Created by:                       C.Kim, T.D.Huan, S.Krishnan, R. Ramprasad