data_1
_audit_creation_method   'Generated by vasp2cif'
_cell_length_a    6.003684029
_cell_length_b    5.91962942355
_cell_length_c    7.57236770048
_cell_angle_alpha    73.6794293177
_cell_angle_beta    77.2422190647
_cell_angle_gamma    83.8197271091

_symmetry_space_group_name_H-M    'P 1'
loop_
_atom_site_label
_atom_site_type_symbol
_atom_site_fract_x
_atom_site_fract_y
_atom_site_fract_z
_atom_site_occupancy
C1   C   0.532764545184051   0.650012060719888   0.809024172668337   1.0
C2   C   0.511029093559856   0.236222313323268   0.493639397342705   1.0
C3   C   0.459301181711872   0.346280739305833   0.658326804329910   1.0
C4   C   0.596298971793701   0.562194921625093   0.631685079822510   1.0
H5   H   0.215758811719382   0.379739185987802   0.384898631998830   1.0
H6   H   0.421974003436120   0.297752456710647   0.229142763859848   1.0
H7   H   0.439991224210516   0.550403983582662   0.284632871368920   1.0
H8   H   0.347458337815489   0.680950261584009   0.844521860541541   1.0
H9   H   0.585991258726139   0.517611110187019   0.927582343361792   1.0
H10   H   0.615426574907197   0.811495795351348   0.791686120813225   1.0
H11   H   0.495045793097262   0.210092399156721   0.781702999299235   1.0
H12   H   0.275513508940008   0.394105578755749   0.689730541771198   1.0
H13   H   0.780335269183432   0.515153503376894   0.602641523737148   1.0
H14   H   0.560751865083482   0.702975498270362   0.510081242787642   1.0
H15   H   0.692765359656946   0.231075262549204   0.432569206143462   1.0
H16   H   0.447124826668464   0.060526086639911   0.532708341578157   1.0
Cl17   Cl   0.998183411039847   0.024700293429817   0.677770743608917   1.0
Cl18   Cl   0.469387900066074   0.948933750296305   0.148070011767146   1.0
Cl19   Cl   0.964184965503421   0.455334569390445   0.121350094727603   1.0
N20   N   0.390375513659159   0.378158192240434   0.337594973200566   1.0
Pb21   Pb   0.963567584037683   0.953302037516593   0.047720275271303   1.0




# HOIP entry ID:                    1037
# Khazana ID:                       2887
# Organic cation source:            H. Hu et al., Sci. Rep. 6, 33546 (2016)
# Label:                            Butylammonium Lead Chloride
# Material class:                   Hybrid organic-inorganic perovskite ( MC_ino )
# Geometry class:                   Bulk crystalline materials ( GC_cry )
# Organic cation chemical formula:  CH3CH2CH2CH2NH3
# Number of atom types:             5
# Total number of atoms:            21
# Atom types:                       C H N  Pb Cl
# Number of each atom:              4 12 1  1 3
# Bandgap, HSE06 (eV):              4.069
# Bandgap, GGA (eV):                2.9756
# Kpoint for VBM:                   0.5, 0.5, 0
# Kpoint for CBM:                   0.5, 0.5, 0.5
# Dielectric constant, electronic:  3.1171
# Dielectric constant, ionic:       6.6429
# Dielectric constant, total:       9.76
# Refractive index:                 1.7655
# Atomization energy (eV/atom):     -4.5865
# Relative energy1 (eV/atom):       -0.0714
# Relative energy2 (eV/atom):       0.143
# Volume of the unit cell (A^3):    251.6
# Density (g/cm^3):                 2.5589
# Tool:                             VASP
# Pseudopotential:                  PAW
# Note:                             ENCUT=400eV, k-spacing_relax=0.20/Angstrom, k-spacing_bandgap=0.15/Angstrom
# Created by:                       C.Kim, T.D.Huan, S.Krishnan, R. Ramprasad