data_1
_audit_creation_method   'Generated by vasp2cif'
_cell_length_a    6.45065552631
_cell_length_b    5.93423678298
_cell_length_c    5.91320188413
_cell_angle_alpha    82.1006382681
_cell_angle_beta    84.1687571343
_cell_angle_gamma    90.5789830168

_symmetry_space_group_name_H-M    'P 1'
loop_
_atom_site_label
_atom_site_type_symbol
_atom_site_fract_x
_atom_site_fract_y
_atom_site_fract_z
_atom_site_occupancy
C1   C   0.409079608779827   0.692471603425844   0.194919987793902   1.0
C2   C   0.564297027419400   0.888350219118472   0.192830585291155   1.0
C3   C   0.483008597575555   0.062927023877989   0.343918010500367   1.0
H4   H   0.447584969961660   0.982497433524237   0.522263585543008   1.0
H5   H   0.594924512702363   0.202336112506558   0.338828592553099   1.0
H6   H   0.339660343433543   0.131812173637044   0.282881703671485   1.0
H7   H   0.868952464467753   0.925339398433231   0.291115235668180   1.0
H8   H   0.611819900629442   0.968821951471782   0.017362831295550   1.0
H9   H   0.474093121248117   0.560488655296389   0.099129004432292   1.0
H10   H   0.272400510456194   0.758562270243523   0.115179838143064   1.0
H11   H   0.359850522068321   0.616670930085128   0.371916515953828   1.0
H12   H   0.836389260366545   0.683826989701735   0.180454927412747   1.0
H13   H   0.731513462612490   0.703914805190486   0.446725315226615   1.0
Cl14   Cl   0.632210252401734   0.397797861832018   0.736367842644029   1.0
Cl15   Cl   0.021894552330863   0.863126839580019   0.753725044807091   1.0
Cl16   Cl   0.997943850247964   0.310161636543782   0.202514838010693   1.0
N17   N   0.765148371105688   0.793431593051359   0.283564094677509   1.0
Pb18   Pb   0.055738672192504   0.343392502480441   0.722882046375396   1.0




# HOIP entry ID:                    1038
# Khazana ID:                       2888
# Organic cation source:            C.C.Stoumpos et al., J. Am. Chem. Soc. 137, 6804 (2015)
# Label:                            Isopropylammonium Lead Chloride
# Material class:                   Hybrid organic-inorganic perovskite ( MC_ino )
# Geometry class:                   Bulk crystalline materials ( GC_cry )
# Organic cation chemical formula:  (CH3)2CHNH3
# Number of atom types:             5
# Total number of atoms:            18
# Atom types:                       C H N  Pb Cl
# Number of each atom:              3 10 1  1 3
# Bandgap, HSE06 (eV):              4.2764
# Bandgap, GGA (eV):                3.1857
# Kpoint for VBM:                   0.5, 0.5, 0.5
# Kpoint for CBM:                   0.5, 0.5, 0.5
# Dielectric constant, electronic:  3.3282
# Dielectric constant, ionic:       6.853
# Dielectric constant, total:       10.1812
# Refractive index:                 1.8243
# Atomization energy (eV/atom):     -4.517
# Relative energy1 (eV/atom):       -0.0352
# Relative energy2 (eV/atom):       0.2149
# Volume of the unit cell (A^3):    222.98
# Density (g/cm^3):                 2.7829
# Tool:                             VASP
# Pseudopotential:                  PAW
# Note:                             ENCUT=400eV, k-spacing_relax=0.20/Angstrom, k-spacing_bandgap=0.15/Angstrom
# Created by:                       C.Kim, T.D.Huan, S.Krishnan, R. Ramprasad