data_1
_audit_creation_method   'Generated by vasp2cif'
_cell_length_a    5.85607588005
_cell_length_b    6.19623401484
_cell_length_c    6.16813968666
_cell_angle_alpha    87.692822118
_cell_angle_beta    95.0170567254
_cell_angle_gamma    80.2907977316

_symmetry_space_group_name_H-M    'P 1'
loop_
_atom_site_label
_atom_site_type_symbol
_atom_site_fract_x
_atom_site_fract_y
_atom_site_fract_z
_atom_site_occupancy
C1   C   0.233352356139726   0.794750016040851   0.537422355473943   1.0
C2   C   0.344561622235219   0.881601223980624   0.345497568819283   1.0
C3   C   0.560175205628255   0.978509333025805   0.412980634376105   1.0
H4   H   0.506254697564181   0.126993363308308   0.497982774993616   1.0
H5   H   0.683049701064832   0.864082850923161   0.524286949420471   1.0
H6   H   0.646555176754369   0.022262869772284   0.272469289665310   1.0
H7   H   0.501658574270870   0.742455726555718   0.072726900201935   1.0
H8   H   0.217415582873024   0.002272952472303   0.244745841000650   1.0
H9   H   0.196592387818903   0.926038395329151   0.648620432538415   1.0
H10   H   0.351824434128602   0.658343193608381   0.627461354144756   1.0
H11   H   0.071600367850714   0.738491453948633   0.485712036787326   1.0
H12   H   0.263424440788903   0.640847530052646   0.127360521934918   1.0
H13   H   0.519802542131991   0.563157859761624   0.281057351522421   1.0
Cl14   Cl   0.896669656009848   0.365226979440749   0.419790831391744   1.0
Cl15   Cl   0.872277652534855   0.744197078376146   0.941463708456574   1.0
Cl16   Cl   0.403125097094723   0.274645167339081   0.904565003952804   1.0
N17   N   0.409711991608241   0.693689800898980   0.196357235634572   1.0
Pb18   Pb   0.909878513502797   0.297184205165593   0.867519209685284   1.0




# HOIP entry ID:                    1039
# Khazana ID:                       2889
# Organic cation source:            C.C.Stoumpos et al., J. Am. Chem. Soc. 137, 6804 (2015)
# Label:                            Isopropylammonium Lead Chloride
# Material class:                   Hybrid organic-inorganic perovskite ( MC_ino )
# Geometry class:                   Bulk crystalline materials ( GC_cry )
# Organic cation chemical formula:  (CH3)2CHNH3
# Number of atom types:             5
# Total number of atoms:            18
# Atom types:                       C H N  Pb Cl
# Number of each atom:              3 10 1  1 3
# Bandgap, HSE06 (eV):              3.8219
# Bandgap, GGA (eV):                2.8825
# Kpoint for VBM:                   0.5, 0.5, 0.5
# Kpoint for CBM:                   0.5, 0.5, 0.5
# Dielectric constant, electronic:  3.4241
# Dielectric constant, ionic:       7.9739
# Dielectric constant, total:       11.398
# Refractive index:                 1.8504
# Atomization energy (eV/atom):     -4.5149
# Relative energy1 (eV/atom):       -0.0331
# Relative energy2 (eV/atom):       0.2171
# Volume of the unit cell (A^3):    219.42
# Density (g/cm^3):                 2.828
# Tool:                             VASP
# Pseudopotential:                  PAW
# Note:                             ENCUT=400eV, k-spacing_relax=0.20/Angstrom, k-spacing_bandgap=0.15/Angstrom
# Created by:                       C.Kim, T.D.Huan, S.Krishnan, R. Ramprasad