data_1
_audit_creation_method   'Generated by vasp2cif'
_cell_length_a    5.85854807729
_cell_length_b    5.75836183617
_cell_length_c    6.60997565099
_cell_angle_alpha    94.3630236707
_cell_angle_beta    92.3583042226
_cell_angle_gamma    83.666192732

_symmetry_space_group_name_H-M    'P 1'
loop_
_atom_site_label
_atom_site_type_symbol
_atom_site_fract_x
_atom_site_fract_y
_atom_site_fract_z
_atom_site_occupancy
C1   C   0.620470976999364   0.722697187828906   0.641030161015870   1.0
C2   C   0.458120124214140   0.532876708069246   0.639388225923604   1.0
C3   C   0.304599937506403   0.556470395216131   0.822192996732269   1.0
H4   H   0.411543224772053   0.552298485681803   0.961026247480511   1.0
H5   H   0.193800171584080   0.415790823686201   0.817770781499675   1.0
H6   H   0.197678545479405   0.725087739731784   0.824920569034575   1.0
H7   H   0.391445290952092   0.516177326086336   0.318618137018930   1.0
H8   H   0.553636704801299   0.358379874337935   0.621973525075376   1.0
H9   H   0.749412559371251   0.694965020160367   0.763258064257926   1.0
H10   H   0.708350761673735   0.714630205137276   0.498350998543891   1.0
H11   H   0.526791539197205   0.897301571543913   0.667172429577192   1.0
H12   H   0.182820615341640   0.427480175142371   0.446650908501567   1.0
H13   H   0.210107754629533   0.715249794972344   0.449324697508743   1.0
Cl14   Cl   0.996424918031011   0.094595677788007   0.526111875161689   1.0
Cl15   Cl   0.850963368119011   0.547961858138855   0.144234710851627   1.0
Cl16   Cl   0.431413574585164   0.078284578082226   0.147157567879653   1.0
N17   N   0.299844707367306   0.549856357143476   0.449115952175340   1.0
Pb18   Pb   0.908425225375240   0.058416221252813   0.106962151761586   1.0




# HOIP entry ID:                    1041
# Khazana ID:                       2891
# Organic cation source:            C.C.Stoumpos et al., J. Am. Chem. Soc. 137, 6804 (2015)
# Label:                            Isopropylammonium Lead Chloride
# Material class:                   Hybrid organic-inorganic perovskite ( MC_ino )
# Geometry class:                   Bulk crystalline materials ( GC_cry )
# Organic cation chemical formula:  (CH3)2CHNH3
# Number of atom types:             5
# Total number of atoms:            18
# Atom types:                       C H N  Pb Cl
# Number of each atom:              3 10 1  1 3
# Bandgap, HSE06 (eV):              4.1789
# Bandgap, GGA (eV):                3.1297
# Kpoint for VBM:                   0.5, 0.5, 0.5
# Kpoint for CBM:                   0.5, 0.5, 0.5
# Dielectric constant, electronic:  3.3724
# Dielectric constant, ionic:       8.9751
# Dielectric constant, total:       12.3475
# Refractive index:                 1.8364
# Atomization energy (eV/atom):     -4.5148
# Relative energy1 (eV/atom):       -0.033
# Relative energy2 (eV/atom):       0.2171
# Volume of the unit cell (A^3):    220.87
# Density (g/cm^3):                 2.8094
# Tool:                             VASP
# Pseudopotential:                  PAW
# Note:                             ENCUT=400eV, k-spacing_relax=0.20/Angstrom, k-spacing_bandgap=0.15/Angstrom
# Created by:                       C.Kim, T.D.Huan, S.Krishnan, R. Ramprasad