data_1
_audit_creation_method   'Generated by vasp2cif'
_cell_length_a    6.56539350848
_cell_length_b    5.76809952309
_cell_length_c    5.8827028535
_cell_angle_alpha    96.4325740162
_cell_angle_beta    87.8426660791
_cell_angle_gamma    94.8503098872

_symmetry_space_group_name_H-M    'P 1'
loop_
_atom_site_label
_atom_site_type_symbol
_atom_site_fract_x
_atom_site_fract_y
_atom_site_fract_z
_atom_site_occupancy
C1   C   0.592467491398139   0.770977315655927   0.283873163750620   1.0
C2   C   0.590040528639697   0.577226829200278   0.440679487083543   1.0
C3   C   0.778977606099225   0.591663337302201   0.586078442687452   1.0
H4   H   0.915215560218542   0.587211859514454   0.474413079597241   1.0
H5   H   0.774614012828472   0.447451185865695   0.691621532408931   1.0
H6   H   0.789256574840351   0.757572788785950   0.697118004454971   1.0
H7   H   0.269409294515256   0.567122242883791   0.519730112457303   1.0
H8   H   0.564612524109357   0.404831858823648   0.342797668441669   1.0
H9   H   0.708019729595947   0.739267265363459   0.148003761526496   1.0
H10   H   0.445173579440017   0.772161324442870   0.205301324353194   1.0
H11   H   0.630494480410434   0.942938614366170   0.378624938755038   1.0
H12   H   0.402874587134157   0.473518814338505   0.720532176881768   1.0
H13   H   0.410534100293397   0.761965432328843   0.696854794070553   1.0
Cl14   Cl   0.484583897970296   0.139751765238309   0.905212911597452   1.0
Cl15   Cl   0.095413045910291   0.588915416277985   0.044891994059910   1.0
Cl16   Cl   0.106556109880877   0.119049820712185   0.466281164625741   1.0
N17   N   0.404275732981240   0.597077453282722   0.605747949824448   1.0
Pb18   Pb   0.061541143734260   0.100366675616918   0.992637493423679   1.0




# HOIP entry ID:                    1042
# Khazana ID:                       2892
# Organic cation source:            C.C.Stoumpos et al., J. Am. Chem. Soc. 137, 6804 (2015)
# Label:                            Isopropylammonium Lead Chloride
# Material class:                   Hybrid organic-inorganic perovskite ( MC_ino )
# Geometry class:                   Bulk crystalline materials ( GC_cry )
# Organic cation chemical formula:  (CH3)2CHNH3
# Number of atom types:             5
# Total number of atoms:            18
# Atom types:                       C H N  Pb Cl
# Number of each atom:              3 10 1  1 3
# Bandgap, HSE06 (eV):              4.1625
# Bandgap, GGA (eV):                3.1582
# Kpoint for VBM:                   0.5, 0.5, 0.5
# Kpoint for CBM:                   0.4474, 0.4474, 0.4474
# Dielectric constant, electronic:  3.3799
# Dielectric constant, ionic:       8.5898
# Dielectric constant, total:       11.9697
# Refractive index:                 1.8385
# Atomization energy (eV/atom):     -4.5145
# Relative energy1 (eV/atom):       -0.0327
# Relative energy2 (eV/atom):       0.2174
# Volume of the unit cell (A^3):    220.49
# Density (g/cm^3):                 2.8143
# Tool:                             VASP
# Pseudopotential:                  PAW
# Note:                             ENCUT=400eV, k-spacing_relax=0.20/Angstrom, k-spacing_bandgap=0.15/Angstrom
# Created by:                       C.Kim, T.D.Huan, S.Krishnan, R. Ramprasad