data_1
_audit_creation_method   'Generated by vasp2cif'
_cell_length_a    6.95561937067
_cell_length_b    4.53847514532
_cell_length_c    8.18174947469
_cell_angle_alpha    108.415076526
_cell_angle_beta    88.7732317406
_cell_angle_gamma    110.003529677

_symmetry_space_group_name_H-M    'P 1'
loop_
_atom_site_label
_atom_site_type_symbol
_atom_site_fract_x
_atom_site_fract_y
_atom_site_fract_z
_atom_site_occupancy
C1   C   0.708183164805170   0.952841912283417   0.643402773769785   1.0
C2   C   0.566967321955422   0.587361851097422   0.580923668797717   1.0
C3   C   0.424067847171491   0.503128175028665   0.717186121118057   1.0
H4   H   0.513863660242065   0.577185435942105   0.840714985902175   1.0
H5   H   0.331980363375242   0.239783601165349   0.680518850483013   1.0
H6   H   0.319715167906068   0.643651624122388   0.739593113555225   1.0
H7   H   0.522594951264797   0.576442905919029   0.319483925229700   1.0
H8   H   0.660982142854913   0.431927630809149   0.544630632057529   1.0
H9   H   0.778101299080037   0.037198388133111   0.538013859043909   1.0
H10   H   0.623759166457189   0.109423279072953   0.713981031066865   1.0
H11   H   0.833880261517056   0.976960164452590   0.730862256057285   1.0
H12   H   0.357476207079618   0.247784807669080   0.362824567097267   1.0
H13   H   0.324880778933006   0.610115510689806   0.430891128348809   1.0
Cl14   Cl   0.081060210889392   0.788549053300259   0.408388426441575   1.0
Cl15   Cl   0.188763360106808   0.117728943057956   0.003773186734932   1.0
Cl16   Cl   0.657055367432088   0.949327510021974   0.175487286857426   1.0
N17   N   0.436193715365393   0.500349544027835   0.412752249584433   1.0
Pb18   Pb   0.927055013564351   0.525289663206878   0.073531937854187   1.0




# HOIP entry ID:                    1043
# Khazana ID:                       2893
# Organic cation source:            C.C.Stoumpos et al., J. Am. Chem. Soc. 137, 6804 (2015)
# Label:                            Isopropylammonium Lead Chloride
# Material class:                   Hybrid organic-inorganic perovskite ( MC_ino )
# Geometry class:                   Bulk crystalline materials ( GC_cry )
# Organic cation chemical formula:  (CH3)2CHNH3
# Number of atom types:             5
# Total number of atoms:            18
# Atom types:                       C H N  Pb Cl
# Number of each atom:              3 10 1  1 3
# Bandgap, HSE06 (eV):              4.4801
# Bandgap, GGA (eV):                3.4182
# Kpoint for VBM:                   0.25, -0.3333, 0.0833
# Kpoint for CBM:                   0.4167, 0, 0.0833
# Dielectric constant, electronic:  3.0725
# Dielectric constant, ionic:       8.8726
# Dielectric constant, total:       11.9451
# Refractive index:                 1.7529
# Atomization energy (eV/atom):     -4.5079
# Relative energy1 (eV/atom):       -0.0261
# Relative energy2 (eV/atom):       0.2241
# Volume of the unit cell (A^3):    229.18
# Density (g/cm^3):                 2.7076
# Tool:                             VASP
# Pseudopotential:                  PAW
# Note:                             ENCUT=400eV, k-spacing_relax=0.20/Angstrom, k-spacing_bandgap=0.15/Angstrom
# Created by:                       C.Kim, T.D.Huan, S.Krishnan, R. Ramprasad