data_1
_audit_creation_method   'Generated by vasp2cif'
_cell_length_a    8.15988372739
_cell_length_b    4.59371169057
_cell_length_c    6.75022281028
_cell_angle_alpha    111.191877154
_cell_angle_beta    79.3429109394
_cell_angle_gamma    104.218394912

_symmetry_space_group_name_H-M    'P 1'
loop_
_atom_site_label
_atom_site_type_symbol
_atom_site_fract_x
_atom_site_fract_y
_atom_site_fract_z
_atom_site_occupancy
C1   C   0.343957752984949   0.362522941472115   0.702249750367045   1.0
C2   C   0.402625312681373   0.051552706319249   0.563407395510183   1.0
C3   C   0.271459933853769   0.829769380622359   0.412355470046727   1.0
H4   H   0.147767538092332   0.787745431922858   0.503381710388496   1.0
H5   H   0.307041291478228   0.600751302461020   0.320285368151737   1.0
H6   H   0.254732109930245   0.941378952014084   0.300462233441131   1.0
H7   H   0.661211492266794   0.292475058213292   0.521067289676033   1.0
H8   H   0.430992084616783   0.939777400453387   0.667253486517296   1.0
H9   H   0.278228635723067   0.441350995117539   0.609511874911135   1.0
H10   H   0.255796281954105   0.314916068401317   0.835502133054675   1.0
H11   H   0.448589359262648   0.551144716852271   0.771788355318130   1.0
H12   H   0.622200056320871   0.912144024379614   0.359667961263050   1.0
H13   H   0.559890138983121   0.193141448770660   0.308249110151003   1.0
Cl14   Cl   0.581617918289204   0.406532662203148   0.068697287090480   1.0
Cl15   Cl   0.985352004745138   0.144271471730598   0.178694770819511   1.0
Cl16   Cl   0.812241859866312   0.796660497085057   0.639508102811583   1.0
N17   N   0.572477227157151   0.116241757200811   0.430980140407492   1.0
Pb18   Pb   0.913179001793885   0.475143184780840   0.912867560074204   1.0




# HOIP entry ID:                    1044
# Khazana ID:                       2894
# Organic cation source:            S.Kataoka et al., J. Am. Chem. Soc. 137, 4158 (2015)
# Label:                            Propylammonium Lead Chloride
# Material class:                   Hybrid organic-inorganic perovskite ( MC_ino )
# Geometry class:                   Bulk crystalline materials ( GC_cry )
# Organic cation chemical formula:  CH3CH2CH2NH3
# Number of atom types:             5
# Total number of atoms:            18
# Atom types:                       C H N  Pb Cl
# Number of each atom:              3 10 1  1 3
# Bandgap, HSE06 (eV):              4.3781
# Bandgap, GGA (eV):                3.3154
# Kpoint for VBM:                   0.3, -0.3889, 0.2143
# Kpoint for CBM:                   0, 0, 0.4286
# Dielectric constant, electronic:  3.1035
# Dielectric constant, ionic:       11.0041
# Dielectric constant, total:       14.1076
# Refractive index:                 1.7617
# Atomization energy (eV/atom):     -4.5073
# Relative energy1 (eV/atom):       -0.0315
# Relative energy2 (eV/atom):       0.2186
# Volume of the unit cell (A^3):    227.39
# Density (g/cm^3):                 2.7289
# Tool:                             VASP
# Pseudopotential:                  PAW
# Note:                             ENCUT=400eV, k-spacing_relax=0.20/Angstrom, k-spacing_bandgap=0.15/Angstrom
# Created by:                       C.Kim, T.D.Huan, S.Krishnan, R. Ramprasad