data_1
_audit_creation_method   'Generated by vasp2cif'
_cell_length_a    7.96936196815
_cell_length_b    4.52330424519
_cell_length_c    7.00252537991
_cell_angle_alpha    70.3264831926
_cell_angle_beta    80.3266864389
_cell_angle_gamma    75.9200006571

_symmetry_space_group_name_H-M    'P 1'
loop_
_atom_site_label
_atom_site_type_symbol
_atom_site_fract_x
_atom_site_fract_y
_atom_site_fract_z
_atom_site_occupancy
C1   C   0.660260444560555   0.303569887029434   0.276077551232698   1.0
C2   C   0.595818814263516   0.003878662550339   0.417835065519344   1.0
C3   C   0.732908683255291   0.782049206489417   0.558913662494741   1.0
H4   H   0.855908241551251   0.728292859110482   0.469383226820309   1.0
H5   H   0.694886246693278   0.557237604552507   0.651533914819150   1.0
H6   H   0.758093349521414   0.901528854936136   0.660986130419164   1.0
H7   H   0.335595663580844   0.264148498420065   0.462539274341447   1.0
H8   H   0.556742819266692   0.883823657416525   0.326113239309080   1.0
H9   H   0.732477839100044   0.390546376706583   0.358616886592122   1.0
H10   H   0.747274422782833   0.235297048823961   0.152392331384804   1.0
H11   H   0.555216360606653   0.494462730199621   0.205668939861636   1.0
H12   H   0.376018861191115   0.891620991462237   0.625750588548127   1.0
H13   H   0.449123161751510   0.181621117606621   0.658592871932100   1.0
Cl14   Cl   0.424456098654724   0.383635896370916   0.902412356353120   1.0
Cl15   Cl   0.019627316130347   0.114756490119003   0.794860841290336   1.0
Cl16   Cl   0.190845309128408   0.777198252186583   0.325457471367562   1.0
N17   N   0.428517385775045   0.091429031091349   0.547960154614908   1.0
Pb18   Pb   0.089128982186665   0.454222834928343   0.055675493099243   1.0




# HOIP entry ID:                    1045
# Khazana ID:                       2895
# Organic cation source:            C.C.Stoumpos et al., J. Am. Chem. Soc. 137, 6804 (2015)
# Label:                            Isopropylammonium Lead Chloride
# Material class:                   Hybrid organic-inorganic perovskite ( MC_ino )
# Geometry class:                   Bulk crystalline materials ( GC_cry )
# Organic cation chemical formula:  (CH3)2CHNH3
# Number of atom types:             5
# Total number of atoms:            18
# Atom types:                       C H N  Pb Cl
# Number of each atom:              3 10 1  1 3
# Bandgap, HSE06 (eV):              4.5088
# Bandgap, GGA (eV):                3.4439
# Kpoint for VBM:                   0.2, 0.3333, 0.25
# Kpoint for CBM:                   0, 0, 0.4167
# Dielectric constant, electronic:  3.0658
# Dielectric constant, ionic:       8.1371
# Dielectric constant, total:       11.2028
# Refractive index:                 1.7509
# Atomization energy (eV/atom):     -4.508
# Relative energy1 (eV/atom):       -0.0261
# Relative energy2 (eV/atom):       0.224
# Volume of the unit cell (A^3):    229.52
# Density (g/cm^3):                 2.7036
# Tool:                             VASP
# Pseudopotential:                  PAW
# Note:                             ENCUT=400eV, k-spacing_relax=0.20/Angstrom, k-spacing_bandgap=0.15/Angstrom
# Created by:                       C.Kim, T.D.Huan, S.Krishnan, R. Ramprasad