data_1
_audit_creation_method   'Generated by vasp2cif'
_cell_length_a    8.26470906415
_cell_length_b    4.58062466684
_cell_length_c    6.73377849251
_cell_angle_alpha    108.649719935
_cell_angle_beta    79.2795077439
_cell_angle_gamma    108.518394895

_symmetry_space_group_name_H-M    'P 1'
loop_
_atom_site_label
_atom_site_type_symbol
_atom_site_fract_x
_atom_site_fract_y
_atom_site_fract_z
_atom_site_occupancy
C1   C   0.663431131441889   0.335307146369367   0.315223241382320   1.0
C2   C   0.602513176228207   0.103535221110178   0.452517842660058   1.0
C3   C   0.735378713342243   0.161489616123241   0.601618463912324   1.0
H4   H   0.859104283311090   0.151207747275826   0.512270225285469   1.0
H5   H   0.698561864626740   0.987563290315670   0.692179602288874   1.0
H6   H   0.754562347519425   0.402476082312120   0.711939863870981   1.0
H7   H   0.343796785449008   0.135612454161830   0.494186730804841   1.0
H8   H   0.570889044361607   0.858447268759477   0.350530327401117   1.0
H9   H   0.731403233296930   0.573393206904996   0.406530114520578   1.0
H10   H   0.751350115917063   0.241276365586863   0.185328706816016   1.0
H11   H   0.558742874352795   0.350262100267763   0.244672680502070   1.0
H12   H   0.380744945151278   0.949315271207134   0.651782857031577   1.0
H13   H   0.448406934809832   0.345755604847028   0.704735326478080   1.0
Cl14   Cl   0.427545346221812   0.776704375366791   0.943904792550619   1.0
Cl15   Cl   0.024012236774858   0.995929735408936   0.829422995131949   1.0
Cl16   Cl   0.193442717615213   0.360752857425680   0.368763554848634   1.0
N17   N   0.432996355050498   0.134041310464106   0.582837332482512   1.0
Pb18   Pb   0.094187894529469   0.662880346093033   0.094185342031992   1.0




# HOIP entry ID:                    1046
# Khazana ID:                       2896
# Organic cation source:            C.C.Stoumpos et al., J. Am. Chem. Soc. 137, 6804 (2015)
# Label:                            Isopropylammonium Lead Chloride
# Material class:                   Hybrid organic-inorganic perovskite ( MC_ino )
# Geometry class:                   Bulk crystalline materials ( GC_cry )
# Organic cation chemical formula:  (CH3)2CHNH3
# Number of atom types:             5
# Total number of atoms:            18
# Atom types:                       C H N  Pb Cl
# Number of each atom:              3 10 1  1 3
# Bandgap, HSE06 (eV):              4.4085
# Bandgap, GGA (eV):                3.3443
# Kpoint for VBM:                   0, -0.3333, 0.1429
# Kpoint for CBM:                   0, 0, 0.4286
# Dielectric constant, electronic:  3.0919
# Dielectric constant, ionic:       9.6032
# Dielectric constant, total:       12.6951
# Refractive index:                 1.7584
# Atomization energy (eV/atom):     -4.5075
# Relative energy1 (eV/atom):       -0.0257
# Relative energy2 (eV/atom):       0.2244
# Volume of the unit cell (A^3):    228.02
# Density (g/cm^3):                 2.7213
# Tool:                             VASP
# Pseudopotential:                  PAW
# Note:                             ENCUT=400eV, k-spacing_relax=0.20/Angstrom, k-spacing_bandgap=0.15/Angstrom
# Created by:                       C.Kim, T.D.Huan, S.Krishnan, R. Ramprasad