data_1
_audit_creation_method   'Generated by vasp2cif'
_cell_length_a    7.71327601767
_cell_length_b    4.30663871757
_cell_length_c    7.27469524314
_cell_angle_alpha    76.5017825554
_cell_angle_beta    79.2920749321
_cell_angle_gamma    91.5270510207

_symmetry_space_group_name_H-M    'P 1'
loop_
_atom_site_label
_atom_site_type_symbol
_atom_site_fract_x
_atom_site_fract_y
_atom_site_fract_z
_atom_site_occupancy
C1   C   0.572745092696273   0.007086036085305   0.283212608585870   1.0
C2   C   0.542203632637623   0.987766680715460   0.499496713739774   1.0
C3   C   0.689282166867358   0.164756933684608   0.557895045896295   1.0
H4   H   0.810424938716245   0.041005106777874   0.535256527571384   1.0
H5   H   0.658893737030084   0.165720090106049   0.710518802400507   1.0
H6   H   0.715824080438949   0.412150593321897   0.471746193907649   1.0
H7   H   0.348665784588867   0.136706995102791   0.706705436463842   1.0
H8   H   0.528139384970309   0.739791743470725   0.582604315633958   1.0
H9   H   0.463860898287770   0.889199848478277   0.242066815497054   1.0
H10   H   0.589900510637548   0.256078555200965   0.198546236533815   1.0
H11   H   0.692731063007130   0.889354553084708   0.241506658675057   1.0
H12   H   0.341912122964146   0.332417044626752   0.481956552660911   1.0
H13   H   0.259249047359177   0.957876901395686   0.560520090648673   1.0
Cl14   Cl   0.377620724524938   0.447499905553848   0.928705785066768   1.0
Cl15   Cl   0.956976583908400   0.897916280713062   0.878409144917164   1.0
Cl16   Cl   0.109444459968017   0.683869442833299   0.397314609373836   1.0
N17   N   0.362151391749528   0.112861582592721   0.566402815811948   1.0
Pb18   Pb   0.040634379647699   0.318961706256062   0.114565646615475   1.0




# HOIP entry ID:                    1047
# Khazana ID:                       2897
# Organic cation source:            C.C.Stoumpos et al., J. Am. Chem. Soc. 137, 6804 (2015)
# Label:                            Isopropylammonium Lead Chloride
# Material class:                   Hybrid organic-inorganic perovskite ( MC_ino )
# Geometry class:                   Bulk crystalline materials ( GC_cry )
# Organic cation chemical formula:  (CH3)2CHNH3
# Number of atom types:             5
# Total number of atoms:            18
# Atom types:                       C H N  Pb Cl
# Number of each atom:              3 10 1  1 3
# Bandgap, HSE06 (eV):              4.7548
# Bandgap, GGA (eV):                3.6857
# Kpoint for VBM:                   0.1, 0.2778, 0.1667
# Kpoint for CBM:                   0, 0, 0.4167
# Dielectric constant, electronic:  3.0247
# Dielectric constant, ionic:       4.1968
# Dielectric constant, total:       7.2215
# Refractive index:                 1.7392
# Atomization energy (eV/atom):     -4.5059
# Relative energy1 (eV/atom):       -0.0241
# Relative energy2 (eV/atom):       0.2261
# Volume of the unit cell (A^3):    230.27
# Density (g/cm^3):                 2.6948
# Tool:                             VASP
# Pseudopotential:                  PAW
# Note:                             ENCUT=400eV, k-spacing_relax=0.20/Angstrom, k-spacing_bandgap=0.15/Angstrom
# Created by:                       C.Kim, T.D.Huan, S.Krishnan, R. Ramprasad