data_1
_audit_creation_method   'Generated by vasp2cif'
_cell_length_a    5.85867542258
_cell_length_b    4.36084280535
_cell_length_c    8.8463248662
_cell_angle_alpha    82.7730646452
_cell_angle_beta    85.5701620067
_cell_angle_gamma    95.393422374

_symmetry_space_group_name_H-M    'P 1'
loop_
_atom_site_label
_atom_site_type_symbol
_atom_site_fract_x
_atom_site_fract_y
_atom_site_fract_z
_atom_site_occupancy
C1   C   0.495818448623396   0.584818456119208   0.650323361640744   1.0
C2   C   0.434506853464299   0.422038485172202   0.514014525528601   1.0
C3   C   0.285559386240287   0.600199739546703   0.407643250921168   1.0
H4   H   0.138048340128201   0.661213375316294   0.476762694918946   1.0
H5   H   0.224856320718196   0.462008306591251   0.321445245039044   1.0
H6   H   0.378036284817341   0.815651912880007   0.346552667826160   1.0
H7   H   0.633039229504227   0.242691852368885   0.335532893368360   1.0
H8   H   0.349639972178004   0.189554213737424   0.553696765879209   1.0
H9   H   0.565364602650696   0.428703759012187   0.736896540523716   1.0
H10   H   0.623032802693743   0.786534210850725   0.616023276873435   1.0
H11   H   0.341815704579133   0.666128566125565   0.702619812748381   1.0
H12   H   0.745953357803984   0.583306343240466   0.371341438166105   1.0
H13   H   0.768179613012947   0.264791545061023   0.495095954779735   1.0
Cl14   Cl   0.495480207708759   0.432055866040145   0.046345582820806   1.0
Cl15   Cl   0.937652994419523   0.978567551655345   0.210217777085354   1.0
Cl16   Cl   0.958128498543843   0.099027101012887   0.741025865556928   1.0
N17   N   0.659561093361496   0.372635873031356   0.423698754255056   1.0
Pb18   Pb   0.967406289551818   0.540202842238166   0.975253592068157   1.0




# HOIP entry ID:                    1048
# Khazana ID:                       2898
# Organic cation source:            C.C.Stoumpos et al., J. Am. Chem. Soc. 137, 6804 (2015)
# Label:                            Isopropylammonium Lead Chloride
# Material class:                   Hybrid organic-inorganic perovskite ( MC_ino )
# Geometry class:                   Bulk crystalline materials ( GC_cry )
# Organic cation chemical formula:  (CH3)2CHNH3
# Number of atom types:             5
# Total number of atoms:            18
# Atom types:                       C H N  Pb Cl
# Number of each atom:              3 10 1  1 3
# Bandgap, HSE06 (eV):              4.6136
# Bandgap, GGA (eV):                3.5485
# Kpoint for VBM:                   0.4286, -0.2222, 0.4
# Kpoint for CBM:                   -0.1429, 0, 0.4
# Dielectric constant, electronic:  3.2653
# Dielectric constant, ionic:       7.5381
# Dielectric constant, total:       10.8034
# Refractive index:                 1.807
# Atomization energy (eV/atom):     -4.5047
# Relative energy1 (eV/atom):       -0.0229
# Relative energy2 (eV/atom):       0.2273
# Volume of the unit cell (A^3):    222.32
# Density (g/cm^3):                 2.7911
# Tool:                             VASP
# Pseudopotential:                  PAW
# Note:                             ENCUT=400eV, k-spacing_relax=0.20/Angstrom, k-spacing_bandgap=0.15/Angstrom
# Created by:                       C.Kim, T.D.Huan, S.Krishnan, R. Ramprasad