data_1
_audit_creation_method   'Generated by vasp2cif'
_cell_length_a    6.03684319134
_cell_length_b    5.88920211824
_cell_length_c    5.82212425763
_cell_angle_alpha    85.3504242068
_cell_angle_beta    97.1330414268
_cell_angle_gamma    97.9512303441

_symmetry_space_group_name_H-M    'P 1'
loop_
_atom_site_label
_atom_site_type_symbol
_atom_site_fract_x
_atom_site_fract_y
_atom_site_fract_z
_atom_site_occupancy
Cl1   Cl   0.494995275130711   0.890084854485699   0.975561194032460   1.0
Cl2   Cl   0.949203226814457   0.937937866247238   0.494708357378714   1.0
Cl3   Cl   0.936178026979410   0.459231761285502   0.979605481532254   1.0
H4   H   0.489518397159514   0.642133010652108   0.310995178440355   1.0
H5   H   0.785630467496127   0.387032217213638   0.400085711828386   1.0
H6   H   0.618454638285436   0.650675865678435   0.576587030403948   1.0
H7   H   0.176059794568028   0.375073399974803   0.449862526935561   1.0
H8   H   0.319554216486745   0.400549817917838   0.736702283113551   1.0
H9   H   0.216646611279918   0.644864047590663   0.580724308793390   1.0
H10   H   0.517597095778669   0.245697497330146   0.292604893619823   1.0
H11   H   0.608752236813951   0.226456930365273   0.597852754559381   1.0
C12   C   0.286950599974187   0.487619291745721   0.566168304288897   1.0
C13   C   0.613925340171301   0.334450607296833   0.437537432888007   1.0
Pb14   Pb   0.980883068603355   0.948449549019275   0.996238488683342   1.0
N15   N   0.508554904561197   0.546231070004356   0.468258985692000   1.0




# HOIP entry ID:                    1049
# Khazana ID:                       2899
# Organic cation source:            B.Saparov et al., Chem. Rev. 116, 4558 (2016)
# Label:                            Dimethylammonium Lead Chloride
# Material class:                   Hybrid organic-inorganic perovskite ( MC_ino )
# Geometry class:                   Bulk crystalline materials ( GC_cry )
# Organic cation chemical formula:  (CH3)2NH2
# Number of atom types:             5
# Total number of atoms:            15
# Atom types:                       C H N  Pb Cl
# Number of each atom:              2 8 1  1 3
# Bandgap, HSE06 (eV):              3.6445
# Bandgap, GGA (eV):                2.679
# Kpoint for VBM:                   0.5, 0.5, 0.5
# Kpoint for CBM:                   0.5, 0.5, 0.4474
# Dielectric constant, electronic:  3.5798
# Dielectric constant, ionic:       18.9971
# Dielectric constant, total:       22.577
# Refractive index:                 1.892
# Atomization energy (eV/atom):     -4.3815
# Relative energy1 (eV/atom):       0.0172
# Relative energy2 (eV/atom):       0.3174
# Volume of the unit cell (A^3):    202.98
# Density (g/cm^3):                 2.9423
# Tool:                             VASP
# Pseudopotential:                  PAW
# Note:                             ENCUT=400eV, k-spacing_relax=0.20/Angstrom, k-spacing_bandgap=0.15/Angstrom
# Created by:                       C.Kim, T.D.Huan, S.Krishnan, R. Ramprasad