data_1
_audit_creation_method   'Generated by vasp2cif'
_cell_length_a    5.90424469291
_cell_length_b    5.93781163591
_cell_length_c    5.8978487367
_cell_angle_alpha    85.1944381636
_cell_angle_beta    99.884801599
_cell_angle_gamma    98.7883918938

_symmetry_space_group_name_H-M    'P 1'
loop_
_atom_site_label
_atom_site_type_symbol
_atom_site_fract_x
_atom_site_fract_y
_atom_site_fract_z
_atom_site_occupancy
Cl1   Cl   0.463945415821853   0.960586470870768   0.948006063885020   1.0
Cl2   Cl   0.900171807148249   0.937574782308147   0.488188809359252   1.0
Cl3   Cl   0.973851661605552   0.473653773905750   0.005437532776496   1.0
H4   H   0.334204023334263   0.566293015751012   0.250652226580038   1.0
H5   H   0.667771091858514   0.375556040240395   0.265952084973234   1.0
H6   H   0.556595037164957   0.693402865633043   0.431752117381656   1.0
H7   H   0.156228252718329   0.363207682221906   0.553005183461549   1.0
H8   H   0.396748474668631   0.478477258663577   0.758684311007168   1.0
H9   H   0.206628544331245   0.662623554399731   0.596886503365414   1.0
H10   H   0.446281846132806   0.192028919173001   0.391438657431785   1.0
H11   H   0.686440759150561   0.340367519600214   0.572811368721612   1.0
C12   C   0.286969321254967   0.510550739115083   0.594522612753925   1.0
C13   C   0.570416239925434   0.347837075642348   0.408662834962369   1.0
Pb14   Pb   0.946038908844996   0.973803740510802   0.987544866030699   1.0
N15   N   0.438101906577240   0.545826369553701   0.408985720905548   1.0




# HOIP entry ID:                    1050
# Khazana ID:                       2900
# Organic cation source:            B.Saparov et al., Chem. Rev. 116, 4558 (2016)
# Label:                            Dimethylammonium Lead Chloride
# Material class:                   Hybrid organic-inorganic perovskite ( MC_ino )
# Geometry class:                   Bulk crystalline materials ( GC_cry )
# Organic cation chemical formula:  (CH3)2NH2
# Number of atom types:             5
# Total number of atoms:            15
# Atom types:                       C H N  Pb Cl
# Number of each atom:              2 8 1  1 3
# Bandgap, HSE06 (eV):              3.4231
# Bandgap, GGA (eV):                2.462
# Kpoint for VBM:                   0.5, 0.5, 0.5
# Kpoint for CBM:                   0.5, 0.5, 0.4211
# Dielectric constant, electronic:  3.6155
# Dielectric constant, ionic:       18.0013
# Dielectric constant, total:       21.6169
# Refractive index:                 1.9015
# Atomization energy (eV/atom):     -4.386
# Relative energy1 (eV/atom):       0.0127
# Relative energy2 (eV/atom):       0.3129
# Volume of the unit cell (A^3):    200.96
# Density (g/cm^3):                 2.9719
# Tool:                             VASP
# Pseudopotential:                  PAW
# Note:                             ENCUT=400eV, k-spacing_relax=0.20/Angstrom, k-spacing_bandgap=0.15/Angstrom
# Created by:                       C.Kim, T.D.Huan, S.Krishnan, R. Ramprasad