data_1
_audit_creation_method   'Generated by vasp2cif'
_cell_length_a    5.92302001811
_cell_length_b    5.93336013304
_cell_length_c    5.87375223226
_cell_angle_alpha    81.0354700662
_cell_angle_beta    99.6272323603
_cell_angle_gamma    95.3581189768

_symmetry_space_group_name_H-M    'P 1'
loop_
_atom_site_label
_atom_site_type_symbol
_atom_site_fract_x
_atom_site_fract_y
_atom_site_fract_z
_atom_site_occupancy
Cl1   Cl   0.455430462918542   0.922380200020157   0.018465915832799   1.0
Cl2   Cl   0.976719325702504   0.960721249687296   0.475843341418304   1.0
Cl3   Cl   0.928652336544801   0.456859151482682   0.949352537821142   1.0
H4   H   0.527086443304931   0.679726983624128   0.370225989274743   1.0
H5   H   0.680764151265507   0.343617370376443   0.274642316859186   1.0
H6   H   0.680342505663376   0.534992715976173   0.602811165378178   1.0
H7   H   0.171784582232945   0.486776678568638   0.496076026195119   1.0
H8   H   0.349810307397178   0.354357851155420   0.748678113930453   1.0
H9   H   0.332256999787553   0.658111986097431   0.701073146861027   1.0
H10   H   0.374818190780310   0.345831426187083   0.213151917717980   1.0
H11   H   0.507706364395098   0.172994515744989   0.468314961080466   1.0
C12   C   0.329539823857488   0.506282026229634   0.618698122630953   1.0
C13   C   0.523837699474988   0.331977094119679   0.349534522691243   1.0
Pb14   Pb   0.952842731387406   0.958307052643164   0.984977704561338   1.0
N15   N   0.529208235097201   0.528564212126255   0.485526080203442   1.0




# HOIP entry ID:                    1051
# Khazana ID:                       2901
# Organic cation source:            B.Saparov et al., Chem. Rev. 116, 4558 (2016)
# Label:                            Dimethylammonium Lead Chloride
# Material class:                   Hybrid organic-inorganic perovskite ( MC_ino )
# Geometry class:                   Bulk crystalline materials ( GC_cry )
# Organic cation chemical formula:  (CH3)2NH2
# Number of atom types:             5
# Total number of atoms:            15
# Atom types:                       C H N  Pb Cl
# Number of each atom:              2 8 1  1 3
# Bandgap, HSE06 (eV):              3.3139
# Bandgap, GGA (eV):                2.3908
# Kpoint for VBM:                   0.5, 0.5, 0.5
# Kpoint for CBM:                   0.5, 0.5, 0.5
# Dielectric constant, electronic:  3.6578
# Dielectric constant, ionic:       32.6414
# Dielectric constant, total:       36.2992
# Refractive index:                 1.9125
# Atomization energy (eV/atom):     -4.3859
# Relative energy1 (eV/atom):       0.0129
# Relative energy2 (eV/atom):       0.3131
# Volume of the unit cell (A^3):    200.55
# Density (g/cm^3):                 2.978
# Tool:                             VASP
# Pseudopotential:                  PAW
# Note:                             ENCUT=400eV, k-spacing_relax=0.20/Angstrom, k-spacing_bandgap=0.15/Angstrom
# Created by:                       C.Kim, T.D.Huan, S.Krishnan, R. Ramprasad