data_1
_audit_creation_method   'Generated by vasp2cif'
_cell_length_a    5.93471438873
_cell_length_b    5.88998644934
_cell_length_c    5.9269726718
_cell_angle_alpha    86.2036626322
_cell_angle_beta    82.6388536705
_cell_angle_gamma    79.0959603247

_symmetry_space_group_name_H-M    'P 1'
loop_
_atom_site_label
_atom_site_type_symbol
_atom_site_fract_x
_atom_site_fract_y
_atom_site_fract_z
_atom_site_occupancy
Cl1   Cl   0.064330324015337   0.965593011206117   0.477752139500886   1.0
Cl2   Cl   0.549561743374781   0.027911274535207   0.988974024697413   1.0
Cl3   Cl   0.981281340153473   0.475983972461052   0.010931130173567   1.0
H4   H   0.408803479365645   0.711242892040005   0.372193299126962   1.0
H5   H   0.272693680317623   0.361206100175536   0.313509384248540   1.0
H6   H   0.622892405536255   0.523534718059686   0.238378871599565   1.0
H7   H   0.561920030989000   0.598439251096657   0.734108839554814   1.0
H8   H   0.792487935601919   0.407834959170131   0.580390904652482   1.0
H9   H   0.761623301498688   0.713906116633709   0.527202113562261   1.0
H10   H   0.264978704057988   0.413432673262257   0.609167214448725   1.0
H11   H   0.492022994019344   0.204216028315642   0.474168425399327   1.0
C12   C   0.670798671457916   0.570541550084656   0.572371183705954   1.0
C13   C   0.375068910606146   0.368020483385529   0.451051230072778   1.0
Pb14   Pb   0.027209811157853   0.977501097824224   0.973065167795916   1.0
N15   N   0.518596667848037   0.554155871749593   0.391276071460865   1.0




# HOIP entry ID:                    1052
# Khazana ID:                       2902
# Organic cation source:            B.Saparov et al., Chem. Rev. 116, 4558 (2016)
# Label:                            Dimethylammonium Lead Chloride
# Material class:                   Hybrid organic-inorganic perovskite ( MC_ino )
# Geometry class:                   Bulk crystalline materials ( GC_cry )
# Organic cation chemical formula:  (CH3)2NH2
# Number of atom types:             5
# Total number of atoms:            15
# Atom types:                       C H N  Pb Cl
# Number of each atom:              2 8 1  1 3
# Bandgap, HSE06 (eV):              3.5168
# Bandgap, GGA (eV):                2.5941
# Kpoint for VBM:                   0.5, 0.5, 0.5
# Kpoint for CBM:                   0.4737, 0.4737, 0.4737
# Dielectric constant, electronic:  3.579
# Dielectric constant, ionic:       14.396
# Dielectric constant, total:       17.975
# Refractive index:                 1.8918
# Atomization energy (eV/atom):     -4.386
# Relative energy1 (eV/atom):       0.0127
# Relative energy2 (eV/atom):       0.3129
# Volume of the unit cell (A^3):    201.57
# Density (g/cm^3):                 2.9629
# Tool:                             VASP
# Pseudopotential:                  PAW
# Note:                             ENCUT=400eV, k-spacing_relax=0.20/Angstrom, k-spacing_bandgap=0.15/Angstrom
# Created by:                       C.Kim, T.D.Huan, S.Krishnan, R. Ramprasad