data_1
_audit_creation_method   'Generated by vasp2cif'
_cell_length_a    8.22232286145
_cell_length_b    4.26299713806
_cell_length_c    6.81690926549
_cell_angle_alpha    122.46607425
_cell_angle_beta    92.6458957392
_cell_angle_gamma    93.7862038015

_symmetry_space_group_name_H-M    'P 1'
loop_
_atom_site_label
_atom_site_type_symbol
_atom_site_fract_x
_atom_site_fract_y
_atom_site_fract_z
_atom_site_occupancy
Cl1   Cl   0.191277609858269   0.085470222387966   0.946312745479197   1.0
Cl2   Cl   0.925171178100037   0.208120787456123   0.442906372470042   1.0
Cl3   Cl   0.679053815210506   0.949035423809187   0.872287370706847   1.0
H4   H   0.445456614829931   0.507259217445901   0.257111408946777   1.0
H5   H   0.541569065942495   0.073515164246518   0.645925352687852   1.0
H6   H   0.591791871257208   0.299521659233198   0.521497377989364   1.0
H7   H   0.256956079080881   0.967953790575283   0.507058646987998   1.0
H8   H   0.327658396878101   0.453897050062676   0.659018757989747   1.0
H9   H   0.302806861918262   0.175685554493473   0.345616172351794   1.0
H10   H   0.661797588624862   0.656555384030296   0.313906478090249   1.0
H11   H   0.533386981818278   0.753171443500120   0.137729693937458   1.0
C12   C   0.336106744986699   0.179177636097454   0.503190401132432   1.0
C13   C   0.540495045736704   0.721007657340063   0.285842901858520   1.0
Pb14   Pb   0.948587387084615   0.555386264934577   0.937436302711780   1.0
N15   N   0.510444758673125   0.086762744387171   0.501200016659867   1.0




# HOIP entry ID:                    1054
# Khazana ID:                       2904
# Organic cation source:            B.Saparov et al., Chem. Rev. 116, 4558 (2016)
# Label:                            Dimethylammonium Lead Chloride
# Material class:                   Hybrid organic-inorganic perovskite ( MC_ino )
# Geometry class:                   Bulk crystalline materials ( GC_cry )
# Organic cation chemical formula:  (CH3)2NH2
# Number of atom types:             5
# Total number of atoms:            15
# Atom types:                       C H N  Pb Cl
# Number of each atom:              2 8 1  1 3
# Bandgap, HSE06 (eV):              4.5566
# Bandgap, GGA (eV):                3.5203
# Kpoint for VBM:                   0.5, 0.2, 0.25
# Kpoint for CBM:                   0.5, 0, 0.5
# Dielectric constant, electronic:  3.3573
# Dielectric constant, ionic:       7.6911
# Dielectric constant, total:       11.0484
# Refractive index:                 1.8323
# Atomization energy (eV/atom):     -4.3802
# Relative energy1 (eV/atom):       0.0185
# Relative energy2 (eV/atom):       0.3187
# Volume of the unit cell (A^3):    200.21
# Density (g/cm^3):                 2.983
# Tool:                             VASP
# Pseudopotential:                  PAW
# Note:                             ENCUT=400eV, k-spacing_relax=0.20/Angstrom, k-spacing_bandgap=0.15/Angstrom
# Created by:                       C.Kim, T.D.Huan, S.Krishnan, R. Ramprasad