data_1
_audit_creation_method   'Generated by vasp2cif'
_cell_length_a    5.7260439589
_cell_length_b    4.24053965782
_cell_length_c    8.17022281816
_cell_angle_alpha    82.9285509557
_cell_angle_beta    86.2742486171
_cell_angle_gamma    86.0987972129

_symmetry_space_group_name_H-M    'P 1'
loop_
_atom_site_label
_atom_site_type_symbol
_atom_site_fract_x
_atom_site_fract_y
_atom_site_fract_z
_atom_site_occupancy
Cl1   Cl   0.943874306246791   0.137474279041982   0.788661043739182   1.0
Cl2   Cl   0.437429662933077   0.764023455898432   0.059254690526082   1.0
Cl3   Cl   0.887187785623084   0.014473044374824   0.312921103404534   1.0
H4   H   0.267046827165892   0.162011061082893   0.530404271613726   1.0
H5   H   0.675479072375168   0.333645039531220   0.506661173293189   1.0
H6   H   0.583890526808275   0.683489123625726   0.418649249858817   1.0
H7   H   0.465498700988334   0.390006444517724   0.761093775071927   1.0
H8   H   0.611481016869227   0.747259444261807   0.697832800847877   1.0
H9   H   0.304260121171204   0.733756486454183   0.669369528913798   1.0
H10   H   0.388907884675376   0.250417645119249   0.322012432402452   1.0
H11   H   0.190111569620569   0.531012504002533   0.414129950669597   1.0
C12   C   0.473480008480252   0.600423485310529   0.670701271971858   1.0
C13   C   0.329012914852896   0.345217185445598   0.436229686147477   1.0
Pb14   Pb   0.935659995661709   0.596960163332845   0.041296464488205   1.0
N15   N   0.530903302082777   0.493882491434000   0.501893701170232   1.0




# HOIP entry ID:                    1055
# Khazana ID:                       2905
# Organic cation source:            B.Saparov et al., Chem. Rev. 116, 4558 (2016)
# Label:                            Dimethylammonium Lead Chloride
# Material class:                   Hybrid organic-inorganic perovskite ( MC_ino )
# Geometry class:                   Bulk crystalline materials ( GC_cry )
# Organic cation chemical formula:  (CH3)2NH2
# Number of atom types:             5
# Total number of atoms:            15
# Atom types:                       C H N  Pb Cl
# Number of each atom:              2 8 1  1 3
# Bandgap, HSE06 (eV):              4.574
# Bandgap, GGA (eV):                3.5291
# Kpoint for VBM:                   0.5, 0.2778, 0.5
# Kpoint for CBM:                   -0.4286, 0, 0.4
# Dielectric constant, electronic:  3.4275
# Dielectric constant, ionic:       9.2681
# Dielectric constant, total:       12.6955
# Refractive index:                 1.8513
# Atomization energy (eV/atom):     -4.3797
# Relative energy1 (eV/atom):       0.019
# Relative energy2 (eV/atom):       0.3192
# Volume of the unit cell (A^3):    196.1
# Density (g/cm^3):                 3.0455
# Tool:                             VASP
# Pseudopotential:                  PAW
# Note:                             ENCUT=400eV, k-spacing_relax=0.20/Angstrom, k-spacing_bandgap=0.15/Angstrom
# Created by:                       C.Kim, T.D.Huan, S.Krishnan, R. Ramprasad