data_1
_audit_creation_method   'Generated by vasp2cif'
_cell_length_a    6.01775439791
_cell_length_b    5.93585879848
_cell_length_c    5.93836640708
_cell_angle_alpha    88.5655285588
_cell_angle_beta    99.8913959548
_cell_angle_gamma    81.1355139427

_symmetry_space_group_name_H-M    'P 1'
loop_
_atom_site_label
_atom_site_type_symbol
_atom_site_fract_x
_atom_site_fract_y
_atom_site_fract_z
_atom_site_occupancy
C1   C   0.355907067703598   0.405262937164075   0.599474360888486   1.0
C2   C   0.514232407388377   0.522086834285744   0.486849950702137   1.0
H3   H   0.701985447763533   0.504889804837049   0.226359822294278   1.0
H4   H   0.688247754704925   0.795550627962200   0.504334079087151   1.0
H5   H   0.354750966212180   0.231498817452149   0.545269967027714   1.0
H6   H   0.182275296774037   0.500494018508370   0.554411461722978   1.0
H7   H   0.405644581742258   0.401506225127982   0.785353894383732   1.0
H8   H   0.522331647643668   0.773688051216233   0.713388746983576   1.0
H9   H   0.544593142691355   0.286026686277651   0.246886012663623   1.0
Cl10   Cl   0.001176148524451   0.979987097514744   0.533754231168778   1.0
Cl11   Cl   0.005006164056169   0.473366746192589   0.024495940499570   1.0
Cl12   Cl   0.514151434565186   0.962726615324215   0.044845224471004   1.0
N13   N   0.588752339486049   0.435459557469095   0.305448477900398   1.0
N14   N   0.573396849810706   0.713950476721067   0.568342065539866   1.0
Pb15   Pb   0.032488750933545   0.983785503946777   0.020665764666724   1.0




# HOIP entry ID:                    1056
# Khazana ID:                       2906
# Organic cation source:            C.C.Stoumpos et al., J. Am. Chem. Soc. 137, 6804 (2015)
# Label:                            Acetamidinium Lead Chloride
# Material class:                   Hybrid organic-inorganic perovskite ( MC_ino )
# Geometry class:                   Bulk crystalline materials ( GC_cry )
# Organic cation chemical formula:  CH3C(NH2)2
# Number of atom types:             5
# Total number of atoms:            15
# Atom types:                       C H N  Pb Cl
# Number of each atom:              2 7 2  1 3
# Bandgap, HSE06 (eV):              3.312
# Bandgap, GGA (eV):                2.3041
# Kpoint for VBM:                   0.5, 0.5, 0.5
# Kpoint for CBM:                   0.5, 0.5, 0.5
# Dielectric constant, electronic:  3.6512
# Dielectric constant, ionic:       17.6683
# Dielectric constant, total:       21.3195
# Refractive index:                 1.9108
# Atomization energy (eV/atom):     -4.6931
# Relative energy1 (eV/atom):       0.1317
# Relative energy2 (eV/atom):       0.4319
# Volume of the unit cell (A^3):    206.18
# Density (g/cm^3):                 3.0013
# Tool:                             VASP
# Pseudopotential:                  PAW
# Note:                             ENCUT=400eV, k-spacing_relax=0.20/Angstrom, k-spacing_bandgap=0.15/Angstrom
# Created by:                       C.Kim, T.D.Huan, S.Krishnan, R. Ramprasad