data_1
_audit_creation_method   'Generated by vasp2cif'
_cell_length_a    5.98471751191
_cell_length_b    5.98186512313
_cell_length_c    5.97292463313
_cell_angle_alpha    91.7515834149
_cell_angle_beta    100.148400649
_cell_angle_gamma    100.866485652

_symmetry_space_group_name_H-M    'P 1'
loop_
_atom_site_label
_atom_site_type_symbol
_atom_site_fract_x
_atom_site_fract_y
_atom_site_fract_z
_atom_site_occupancy
C1   C   0.649393800455619   0.506594578382840   0.520021368660362   1.0
C2   C   0.500862767078088   0.624557994337291   0.639904912074407   1.0
H3   H   0.323177650214999   0.603461414235350   0.906981694019209   1.0
H4   H   0.314637491670183   0.882846659770849   0.620193709326606   1.0
H5   H   0.787140396351313   0.456912612847906   0.641790548974163   1.0
H6   H   0.726777490513418   0.614027661379257   0.398954455578011   1.0
H7   H   0.542362225051102   0.351634606495687   0.426891967877821   1.0
H8   H   0.473448052311385   0.864132074896226   0.407099042764696   1.0
H9   H   0.488018750284886   0.397865394530406   0.887207993221594   1.0
Cl10   Cl   0.010679619013617   0.083613653616985   0.559387056683231   1.0
Cl11   Cl   0.014575576307411   0.541624573712087   0.099699285645485   1.0
Cl12   Cl   0.465769099090737   0.060569627476835   0.075036109654965   1.0
N13   N   0.441092928695800   0.543644693156982   0.829515432970807   1.0
N14   N   0.430407051103835   0.806658614063239   0.555350334084410   1.0
Pb15   Pb   0.958727101857654   0.065905841098000   0.080976088464179   1.0




# HOIP entry ID:                    1057
# Khazana ID:                       2907
# Organic cation source:            C.C.Stoumpos et al., J. Am. Chem. Soc. 137, 6804 (2015)
# Label:                            Acetamidinium Lead Chloride
# Material class:                   Hybrid organic-inorganic perovskite ( MC_ino )
# Geometry class:                   Bulk crystalline materials ( GC_cry )
# Organic cation chemical formula:  CH3C(NH2)2
# Number of atom types:             5
# Total number of atoms:            15
# Atom types:                       C H N  Pb Cl
# Number of each atom:              2 7 2  1 3
# Bandgap, HSE06 (eV):              3.7277
# Bandgap, GGA (eV):                2.7718
# Kpoint for VBM:                   0.5, 0.5, 0.5
# Kpoint for CBM:                   0.5, 0.5, 0.4211
# Dielectric constant, electronic:  3.5972
# Dielectric constant, ionic:       10.9555
# Dielectric constant, total:       14.5527
# Refractive index:                 1.8966
# Atomization energy (eV/atom):     -4.692
# Relative energy1 (eV/atom):       0.1328
# Relative energy2 (eV/atom):       0.433
# Volume of the unit cell (A^3):    206.26
# Density (g/cm^3):                 3.0002
# Tool:                             VASP
# Pseudopotential:                  PAW
# Note:                             ENCUT=400eV, k-spacing_relax=0.20/Angstrom, k-spacing_bandgap=0.15/Angstrom
# Created by:                       C.Kim, T.D.Huan, S.Krishnan, R. Ramprasad