data_1
_audit_creation_method   'Generated by vasp2cif'
_cell_length_a    5.99618565947
_cell_length_b    5.90514735941
_cell_length_c    5.96750332521
_cell_angle_alpha    83.2684611987
_cell_angle_beta    103.653262021
_cell_angle_gamma    89.2875557695

_symmetry_space_group_name_H-M    'P 1'
loop_
_atom_site_label
_atom_site_type_symbol
_atom_site_fract_x
_atom_site_fract_y
_atom_site_fract_z
_atom_site_occupancy
C1   C   0.599285165551088   0.485740471445126   0.418321108247433   1.0
C2   C   0.502213525090525   0.635056073826796   0.560534779408009   1.0
H3   H   0.277100006656362   0.652722002148565   0.771689602491591   1.0
H4   H   0.540464725204338   0.939505214518810   0.694460599528419   1.0
H5   H   0.588475887786196   0.573628965753478   0.244170000457700   1.0
H6   H   0.510007252651910   0.326851867503052   0.404402620182992   1.0
H7   H   0.780864122475016   0.445460295048377   0.500815931043711   1.0
H8   H   0.706590301371421   0.895908866860800   0.501231044362868   1.0
H9   H   0.288341957359357   0.397995433356456   0.657011816090503   1.0
Cl10   Cl   0.068850685502198   0.078494819958621   0.601406097772468   1.0
Cl11   Cl   0.033937299170901   0.570911201677482   0.057746915696384   1.0
Cl12   Cl   0.598893907209892   0.077079482708470   0.038340572476386   1.0
N13   N   0.348730151378305   0.556983030230128   0.673669013275656   1.0
N14   N   0.573159445717245   0.846588551010100   0.570793548959813   1.0
Pb15   Pb   0.071785566875157   0.077323723953697   0.105266350006076   1.0




# HOIP entry ID:                    1058
# Khazana ID:                       2908
# Organic cation source:            C.C.Stoumpos et al., J. Am. Chem. Soc. 137, 6804 (2015)
# Label:                            Acetamidinium Lead Chloride
# Material class:                   Hybrid organic-inorganic perovskite ( MC_ino )
# Geometry class:                   Bulk crystalline materials ( GC_cry )
# Organic cation chemical formula:  CH3C(NH2)2
# Number of atom types:             5
# Total number of atoms:            15
# Atom types:                       C H N  Pb Cl
# Number of each atom:              2 7 2  1 3
# Bandgap, HSE06 (eV):              3.7667
# Bandgap, GGA (eV):                2.746
# Kpoint for VBM:                   0.5, 0.5, 0.5
# Kpoint for CBM:                   0.4737, 0.4737, 0.4737
# Dielectric constant, electronic:  3.6458
# Dielectric constant, ionic:       15.9072
# Dielectric constant, total:       19.5531
# Refractive index:                 1.9094
# Atomization energy (eV/atom):     -4.691
# Relative energy1 (eV/atom):       0.1338
# Relative energy2 (eV/atom):       0.434
# Volume of the unit cell (A^3):    203.74
# Density (g/cm^3):                 3.0373
# Tool:                             VASP
# Pseudopotential:                  PAW
# Note:                             ENCUT=400eV, k-spacing_relax=0.20/Angstrom, k-spacing_bandgap=0.15/Angstrom
# Created by:                       C.Kim, T.D.Huan, S.Krishnan, R. Ramprasad