data_1
_audit_creation_method   'Generated by vasp2cif'
_cell_length_a    5.84239569807
_cell_length_b    4.13910139801
_cell_length_c    8.5509224539
_cell_angle_alpha    89.7247473356
_cell_angle_beta    95.0938394711
_cell_angle_gamma    101.526803371

_symmetry_space_group_name_H-M    'P 1'
loop_
_atom_site_label
_atom_site_type_symbol
_atom_site_fract_x
_atom_site_fract_y
_atom_site_fract_z
_atom_site_occupancy
C1   C   0.401740432608932   0.866308014728226   0.607559227003939   1.0
C2   C   0.545833430089537   0.820626143735673   0.476045063936482   1.0
H3   H   0.370277385193383   0.080140336076617   0.322061490861373   1.0
H4   H   0.588509484149832   0.915309492694121   0.243233145314704   1.0
H5   H   0.300622924540818   0.626458271320246   0.638975173402379   1.0
H6   H   0.514950427968799   0.967821668961655   0.711788984615652   1.0
H7   H   0.279946169715288   0.027528499403637   0.573335313788739   1.0
H8   H   0.813248910870158   0.602164380839177   0.413069287590545   1.0
H9   H   0.754139340122627   0.558427044778917   0.607458551428152   1.0
Cl10   Cl   0.555909768794756   0.551265141643981   0.013559624773741   1.0
Cl11   Cl   0.038524164378700   0.266096141841103   0.271714182224834   1.0
Cl12   Cl   0.975346933932371   0.238073892980033   0.774743361254082   1.0
N13   N   0.501321127408694   0.949861514678517   0.337861050126754   1.0
N14   N   0.713854988143105   0.646928319352362   0.499524593687340   1.0
Pb15   Pb   0.047024512082963   0.737291136965702   0.012500949991313   1.0




# HOIP entry ID:                    1059
# Khazana ID:                       2909
# Organic cation source:            C.C.Stoumpos et al., J. Am. Chem. Soc. 137, 6804 (2015)
# Label:                            Acetamidinium Lead Chloride
# Material class:                   Hybrid organic-inorganic perovskite ( MC_ino )
# Geometry class:                   Bulk crystalline materials ( GC_cry )
# Organic cation chemical formula:  CH3C(NH2)2
# Number of atom types:             5
# Total number of atoms:            15
# Atom types:                       C H N  Pb Cl
# Number of each atom:              2 7 2  1 3
# Bandgap, HSE06 (eV):              4.6376
# Bandgap, GGA (eV):                3.5748
# Kpoint for VBM:                   -0.4286, -0.15, 0.375
# Kpoint for CBM:                   0.5, 0, 0.5
# Dielectric constant, electronic:  3.4291
# Dielectric constant, ionic:       6.902
# Dielectric constant, total:       10.3311
# Refractive index:                 1.8518
# Atomization energy (eV/atom):     -4.6929
# Relative energy1 (eV/atom):       0.1319
# Relative energy2 (eV/atom):       0.4321
# Volume of the unit cell (A^3):    201.79
# Density (g/cm^3):                 3.0666
# Tool:                             VASP
# Pseudopotential:                  PAW
# Note:                             ENCUT=400eV, k-spacing_relax=0.20/Angstrom, k-spacing_bandgap=0.15/Angstrom
# Created by:                       C.Kim, T.D.Huan, S.Krishnan, R. Ramprasad