data_1
_audit_creation_method   'Generated by vasp2cif'
_cell_length_a    8.73742399566
_cell_length_b    3.84874784072
_cell_length_c    6.16737370008
_cell_angle_alpha    89.8242107976
_cell_angle_beta    87.4221258204
_cell_angle_gamma    89.9222341444

_symmetry_space_group_name_H-M    'P 1'
loop_
_atom_site_label
_atom_site_type_symbol
_atom_site_fract_x
_atom_site_fract_y
_atom_site_fract_z
_atom_site_occupancy
C1   C   0.610338490713573   0.944357029195970   0.555217767875625   1.0
C2   C   0.489885187738963   0.757795118867421   0.434758776986804   1.0
H3   H   0.338692045879043   0.754093449058168   0.695180982582428   1.0
H4   H   0.277003127841340   0.518476777245155   0.477507554200976   1.0
H5   H   0.686156580700462   0.751325034635869   0.626315392602741   1.0
H6   H   0.680978524291945   0.108952007367478   0.446790430223153   1.0
H7   H   0.558850938965307   0.097431209347221   0.687917455833059   1.0
H8   H   0.442608190639333   0.529580344602628   0.143746566147776   1.0
H9   H   0.615715373403660   0.754794181566730   0.149840957402816   1.0
Cl10   Cl   0.028143030174476   0.224078867458005   0.474526906485707   1.0
Cl11   Cl   0.275423066588416   0.195072224314941   0.971014611480825   1.0
Cl12   Cl   0.787143099462341   0.207701345891671   0.993400166295615   1.0
N13   N   0.360039054822337   0.669198516561444   0.540730717730312   1.0
N14   N   0.518512126140422   0.669908513696647   0.229849115337792   1.0
Pb15   Pb   0.021771162638501   0.713925380190645   0.115312598814271   1.0




# HOIP entry ID:                    1061
# Khazana ID:                       2911
# Organic cation source:            C.C.Stoumpos et al., J. Am. Chem. Soc. 137, 6804 (2015)
# Label:                            Acetamidinium Lead Chloride
# Material class:                   Hybrid organic-inorganic perovskite ( MC_ino )
# Geometry class:                   Bulk crystalline materials ( GC_cry )
# Organic cation chemical formula:  CH3C(NH2)2
# Number of atom types:             5
# Total number of atoms:            15
# Atom types:                       C H N  Pb Cl
# Number of each atom:              2 7 2  1 3
# Bandgap, HSE06 (eV):              4.5162
# Bandgap, GGA (eV):                3.4462
# Kpoint for VBM:                   -0.375, 0.15, 0.0833
# Kpoint for CBM:                   0, 0, 0.5
# Dielectric constant, electronic:  3.2791
# Dielectric constant, ionic:       9.2448
# Dielectric constant, total:       12.5239
# Refractive index:                 1.8108
# Atomization energy (eV/atom):     -4.6787
# Relative energy1 (eV/atom):       0.1461
# Relative energy2 (eV/atom):       0.4463
# Volume of the unit cell (A^3):    207.19
# Density (g/cm^3):                 2.9867
# Tool:                             VASP
# Pseudopotential:                  PAW
# Note:                             ENCUT=400eV, k-spacing_relax=0.20/Angstrom, k-spacing_bandgap=0.15/Angstrom
# Created by:                       C.Kim, T.D.Huan, S.Krishnan, R. Ramprasad