data_1
_audit_creation_method   'Generated by vasp2cif'
_cell_length_a    5.77798305518
_cell_length_b    5.68618716573
_cell_length_c    5.8234080502
_cell_angle_alpha    90.0253575048
_cell_angle_beta    91.9929436416
_cell_angle_gamma    89.8728232873

_symmetry_space_group_name_H-M    'P 1'
loop_
_atom_site_label
_atom_site_type_symbol
_atom_site_fract_x
_atom_site_fract_y
_atom_site_fract_z
_atom_site_occupancy
Cl1   Cl   0.409403603810233   0.998880328524585   0.062751296673291   1.0
Cl2   Cl   0.865795555107596   0.999900772204349   0.510174070913429   1.0
Cl3   Cl   0.857799500605346   0.499185237740782   0.961016235931950   1.0
H4   H   0.541253024361936   0.500059361109635   0.260152115685791   1.0
H5   H   0.654045971541635   0.354575983434167   0.484718359977784   1.0
H6   H   0.649064463965608   0.649809892671286   0.484096164256037   1.0
H7   H   0.233117654984959   0.336821986430749   0.493127855732879   1.0
H8   H   0.352062256183899   0.498766067648219   0.733047535994167   1.0
H9   H   0.226460366173448   0.652749578828569   0.491036623869625   1.0
C10   C   0.322728606906459   0.496936501629285   0.547315088989457   1.0
Pb11   Pb   0.918983873235469   0.999221984642467   0.005695451423499   1.0
N12   N   0.556175123123310   0.500652305135908   0.437069200551143   1.0




# HOIP entry ID:                    1062
# Khazana ID:                       2912
# Organic cation source:            T.D.Huan et al., Phys. Rev. B 93,094105(2016)
# Label:                            Methylammonium Lead Chloride
# Material class:                   Hybrid organic-inorganic perovskite ( MC_ino )
# Geometry class:                   Bulk crystalline materials ( GC_cry )
# Organic cation chemical formula:  CH3NH3
# Number of atom types:             5
# Total number of atoms:            12
# Atom types:                       C H N  Pb Cl
# Number of each atom:              1 6 1  1 3
# Bandgap, HSE06 (eV):              3.495
# Bandgap, GGA (eV):                2.5715
# Kpoint for VBM:                   0.5, 0.5, 0.5
# Kpoint for CBM:                   0.4474, 0.4474, 0.4474
# Dielectric constant, electronic:  3.5243
# Dielectric constant, ionic:       8.3055
# Dielectric constant, total:       11.8298
# Refractive index:                 1.8773
# Atomization energy (eV/atom):     -4.2317
# Relative energy1 (eV/atom):       0.0994
# Relative energy2 (eV/atom):       0.4746
# Volume of the unit cell (A^3):    191.21
# Density (g/cm^3):                 3.0016
# Tool:                             VASP
# Pseudopotential:                  PAW
# Note:                             ENCUT=400eV, k-spacing_relax=0.20/Angstrom, k-spacing_bandgap=0.15/Angstrom
# Created by:                       C.Kim, T.D.Huan, S.Krishnan, R. Ramprasad