data_1
_audit_creation_method   'Generated by vasp2cif'
_cell_length_a    5.76133357366
_cell_length_b    5.74663423444
_cell_length_c    5.82411873849
_cell_angle_alpha    86.7931046532
_cell_angle_beta    85.3274999073
_cell_angle_gamma    93.2145247049

_symmetry_space_group_name_H-M    'P 1'
loop_
_atom_site_label
_atom_site_type_symbol
_atom_site_fract_x
_atom_site_fract_y
_atom_site_fract_z
_atom_site_occupancy
Cl1   Cl   0.027212808214415   0.037579651060177   0.588684695606645   1.0
Cl2   Cl   0.491018772263061   0.979782937389011   0.126169901842580   1.0
Cl3   Cl   0.957590847287072   0.505130565150964   0.125026815669166   1.0
H4   H   0.298645764254772   0.346466471632830   0.475904184267470   1.0
H5   H   0.564275670839990   0.404745912283261   0.337059618828896   1.0
H6   H   0.383259068269027   0.617440887678072   0.361953373494430   1.0
H7   H   0.596417602326476   0.370791906119386   0.751183902820493   1.0
H8   H   0.679243625856678   0.660953670052223   0.633293850899946   1.0
H9   H   0.396537507688286   0.597596178774587   0.782618076604976   1.0
C10   C   0.535392834950301   0.529725168707458   0.671833342618889   1.0
Pb11   Pb   0.990806935088457   0.005661742853128   0.080129127789561   1.0
N12   N   0.437588562961437   0.470274908298897   0.447153109556979   1.0




# HOIP entry ID:                    1063
# Khazana ID:                       2913
# Organic cation source:            T.D.Huan et al., Phys. Rev. B 93,094105(2016)
# Label:                            Methylammonium Lead Chloride
# Material class:                   Hybrid organic-inorganic perovskite ( MC_ino )
# Geometry class:                   Bulk crystalline materials ( GC_cry )
# Organic cation chemical formula:  CH3NH3
# Number of atom types:             5
# Total number of atoms:            12
# Atom types:                       C H N  Pb Cl
# Number of each atom:              1 6 1  1 3
# Bandgap, HSE06 (eV):              3.424
# Bandgap, GGA (eV):                2.5313
# Kpoint for VBM:                   0.5, 0.5, 0.5
# Kpoint for CBM:                   0.5, 0.5, 0.5
# Dielectric constant, electronic:  3.5364
# Dielectric constant, ionic:       8.9966
# Dielectric constant, total:       12.5329
# Refractive index:                 1.8805
# Atomization energy (eV/atom):     -4.2313
# Relative energy1 (eV/atom):       0.0998
# Relative energy2 (eV/atom):       0.475
# Volume of the unit cell (A^3):    191.53
# Density (g/cm^3):                 2.9966
# Tool:                             VASP
# Pseudopotential:                  PAW
# Note:                             ENCUT=400eV, k-spacing_relax=0.20/Angstrom, k-spacing_bandgap=0.15/Angstrom
# Created by:                       C.Kim, T.D.Huan, S.Krishnan, R. Ramprasad