data_1
_audit_creation_method   'Generated by vasp2cif'
_cell_length_a    5.82998519239
_cell_length_b    4.27452403635
_cell_length_c    7.52410154927
_cell_angle_alpha    98.0960706885
_cell_angle_beta    83.2399211413
_cell_angle_gamma    93.810919337

_symmetry_space_group_name_H-M    'P 1'
loop_
_atom_site_label
_atom_site_type_symbol
_atom_site_fract_x
_atom_site_fract_y
_atom_site_fract_z
_atom_site_occupancy
Cl1   Cl   0.019551327432761   0.617591952171499   0.733941917619787   1.0
Cl2   Cl   0.474585321781314   0.244277280475292   0.085908932837763   1.0
Cl3   Cl   0.953591768613782   0.747774609579510   0.282879058299526   1.0
H4   H   0.288806918241589   0.757693974565526   0.492722842198991   1.0
H5   H   0.561962878401207   0.711399406397503   0.389139870541731   1.0
H6   H   0.404212406028908   0.981181436997661   0.335351955660587   1.0
H7   H   0.570732638201971   0.978947208576938   0.697467121406574   1.0
H8   H   0.692233639917400   0.222670548377200   0.532866235825336   1.0
H9   H   0.402463843854956   0.276955594253073   0.640889587680070   1.0
C10   C   0.533812137257707   0.107074304324544   0.589636468413049   1.0
Pb11   Pb   0.985895646038030   0.188544101602489   0.012236767275174   1.0
N12   N   0.439501474230400   0.872389582678798   0.443279242241497   1.0




# HOIP entry ID:                    1064
# Khazana ID:                       2914
# Organic cation source:            T.D.Huan et al., Phys. Rev. B 93,094105(2016)
# Label:                            Methylammonium Lead Chloride
# Material class:                   Hybrid organic-inorganic perovskite ( MC_ino )
# Geometry class:                   Bulk crystalline materials ( GC_cry )
# Organic cation chemical formula:  CH3NH3
# Number of atom types:             5
# Total number of atoms:            12
# Atom types:                       C H N  Pb Cl
# Number of each atom:              1 6 1  1 3
# Bandgap, HSE06 (eV):              4.412
# Bandgap, GGA (eV):                3.4021
# Kpoint for VBM:                   0.5, 0.1667, 0.5
# Kpoint for CBM:                   -0.2857, 0, 0.4
# Dielectric constant, electronic:  3.3722
# Dielectric constant, ionic:       8.9136
# Dielectric constant, total:       12.2858
# Refractive index:                 1.8364
# Atomization energy (eV/atom):     -4.2269
# Relative energy1 (eV/atom):       0.1042
# Relative energy2 (eV/atom):       0.4795
# Volume of the unit cell (A^3):    184.11
# Density (g/cm^3):                 3.1173
# Tool:                             VASP
# Pseudopotential:                  PAW
# Note:                             ENCUT=400eV, k-spacing_relax=0.20/Angstrom, k-spacing_bandgap=0.15/Angstrom
# Created by:                       C.Kim, T.D.Huan, S.Krishnan, R. Ramprasad