data_1
_audit_creation_method   'Generated by vasp2cif'
_cell_length_a    5.68034631126
_cell_length_b    4.16229900237
_cell_length_c    8.76148973379
_cell_angle_alpha    118.274770341
_cell_angle_beta    83.4948578323
_cell_angle_gamma    95.6424013824

_symmetry_space_group_name_H-M    'P 1'
loop_
_atom_site_label
_atom_site_type_symbol
_atom_site_fract_x
_atom_site_fract_y
_atom_site_fract_z
_atom_site_occupancy
Cl1   Cl   0.950275200023536   0.845877076515253   0.238581525223445   1.0
Cl2   Cl   0.510539870231407   0.910186666669030   0.934171973388058   1.0
Cl3   Cl   0.014404265026398   0.303607852841088   0.690981478202771   1.0
H4   H   0.723297877568657   0.327682772953149   0.438387080817115   1.0
H5   H   0.578532673583350   0.595627899502105   0.632395737657111   1.0
H6   H   0.759217394875825   0.779437068826224   0.529467805687771   1.0
H7   H   0.304270396612865   0.349719734240450   0.399942468406590   1.0
H8   H   0.343745406794567   0.834499877596408   0.496100668856750   1.0
H9   H   0.498413406333609   0.553581982964782   0.290441441472964   1.0
C10   C   0.429227104320092   0.577236844554867   0.416140398385046   1.0
Pb11   Pb   0.011784876525752   0.079767902678545   0.964635414038659   1.0
N12   N   0.634671528103851   0.566904320658188   0.509754007863675   1.0




# HOIP entry ID:                    1065
# Khazana ID:                       2915
# Organic cation source:            T.D.Huan et al., Phys. Rev. B 93,094105(2016)
# Label:                            Methylammonium Lead Chloride
# Material class:                   Hybrid organic-inorganic perovskite ( MC_ino )
# Geometry class:                   Bulk crystalline materials ( GC_cry )
# Organic cation chemical formula:  CH3NH3
# Number of atom types:             5
# Total number of atoms:            12
# Atom types:                       C H N  Pb Cl
# Number of each atom:              1 6 1  1 3
# Bandgap, HSE06 (eV):              4.4069
# Bandgap, GGA (eV):                3.3906
# Kpoint for VBM:                   0.5, 0.2, 0.3333
# Kpoint for CBM:                   0.5, 0, 0.5
# Dielectric constant, electronic:  3.448
# Dielectric constant, ionic:       7.537
# Dielectric constant, total:       10.985
# Refractive index:                 1.8569
# Atomization energy (eV/atom):     -4.2254
# Relative energy1 (eV/atom):       0.1057
# Relative energy2 (eV/atom):       0.4809
# Volume of the unit cell (A^3):    181.02
# Density (g/cm^3):                 3.1706
# Tool:                             VASP
# Pseudopotential:                  PAW
# Note:                             ENCUT=400eV, k-spacing_relax=0.20/Angstrom, k-spacing_bandgap=0.15/Angstrom
# Created by:                       C.Kim, T.D.Huan, S.Krishnan, R. Ramprasad