data_1
_audit_creation_method   'Generated by vasp2cif'
_cell_length_a    5.83654217596
_cell_length_b    5.83303955724
_cell_length_c    5.85035840434
_cell_angle_alpha    86.7654493085
_cell_angle_beta    94.2718245257
_cell_angle_gamma    84.636524147

_symmetry_space_group_name_H-M    'P 1'
loop_
_atom_site_label
_atom_site_type_symbol
_atom_site_fract_x
_atom_site_fract_y
_atom_site_fract_z
_atom_site_occupancy
C1   C   0.755865936597260   0.284918507253195   0.634442920268874   1.0
H2   H   0.874124631336088   0.170887998197429   0.337461482459062   1.0
H3   H   0.025864354183319   0.462226489221166   0.543159959624276   1.0
H4   H   0.479139877458216   0.150587829194798   0.766149853121576   1.0
H5   H   0.597032399309512   0.361507263921538   0.925337524423526   1.0
H6   H   0.875754412447243   0.570723351352186   0.767440450776412   1.0
H7   H   0.672458316706738   0.006717380444236   0.456883972396490   1.0
Cl8   Cl   0.301541877809051   0.810966622543482   0.624564751927636   1.0
Cl9   Cl   0.223029732629008   0.288854590489890   0.177402520892151   1.0
Cl10   Cl   0.737276107161541   0.727110465647819   0.115319399496826   1.0
N11   N   0.766377289121543   0.143742283881387   0.462176092167354   1.0
N12   N   0.898920236093801   0.450756788975099   0.650558485078903   1.0
N13   N   0.603828506159651   0.258287303276262   0.792261623733772   1.0
Pb14   Pb   0.245986322987001   0.787553125601576   0.129120963633113   1.0




# HOIP entry ID:                    1068
# Khazana ID:                       2918
# Organic cation source:            B.Saparov et al., Chem. Rev. 116, 4558 (2016)
# Label:                            Guanidinium Lead Chloride
# Material class:                   Hybrid organic-inorganic perovskite ( MC_ino )
# Geometry class:                   Bulk crystalline materials ( GC_cry )
# Organic cation chemical formula:  C(NH2)3
# Number of atom types:             5
# Total number of atoms:            14
# Atom types:                       C H N  Pb Cl
# Number of each atom:              1 6 3  1 3
# Bandgap, HSE06 (eV):              3.422
# Bandgap, GGA (eV):                2.4782
# Kpoint for VBM:                   0.5, 0.5, 0.5
# Kpoint for CBM:                   0.5, 0.5, 0.5
# Dielectric constant, electronic:  3.7444
# Dielectric constant, ionic:       16.3548
# Dielectric constant, total:       20.0992
# Refractive index:                 1.935
# Atomization energy (eV/atom):     -4.7337
# Relative energy1 (eV/atom):       0.3247
# Relative energy2 (eV/atom):       0.6463
# Volume of the unit cell (A^3):    197.35
# Density (g/cm^3):                 3.1439
# Tool:                             VASP
# Pseudopotential:                  PAW
# Note:                             ENCUT=400eV, k-spacing_relax=0.20/Angstrom, k-spacing_bandgap=0.15/Angstrom
# Created by:                       C.Kim, T.D.Huan, S.Krishnan, R. Ramprasad