data_1
_audit_creation_method   'Generated by vasp2cif'
_cell_length_a    9.20468230548
_cell_length_b    4.09677505405
_cell_length_c    5.87454195238
_cell_angle_alpha    77.5954420263
_cell_angle_beta    96.0907876884
_cell_angle_gamma    116.426032691

_symmetry_space_group_name_H-M    'P 1'
loop_
_atom_site_label
_atom_site_type_symbol
_atom_site_fract_x
_atom_site_fract_y
_atom_site_fract_z
_atom_site_occupancy
C1   C   0.467668916728300   0.208447325686073   0.530166976386738   1.0
H2   H   0.367937404167357   0.359676306537715   0.764221650962483   1.0
H3   H   0.576614467113615   0.579061973397330   0.753672410798409   1.0
H4   H   0.608116956600483   0.129107096198894   0.315925080522952   1.0
H5   H   0.715132346724438   0.439283683534328   0.502172056412761   1.0
H6   H   0.219440473202447   0.929341622392826   0.519247769020197   1.0
H7   H   0.320018582531084   0.826078942083640   0.329973693180428   1.0
Cl8   Cl   0.968182883302319   0.971989927879875   0.552070555197211   1.0
Cl9   Cl   0.227297474210573   0.540241441074642   0.009600711168836   1.0
Cl10   Cl   0.716814186606435   0.033326219160266   0.005295812905366   1.0
N11   N   0.470836927385669   0.399450091634712   0.690866215973216   1.0
N12   N   0.325481576094290   0.966809490253148   0.456117007602487   1.0
N13   N   0.606967482186072   0.257466665543241   0.445356810688921   1.0
Pb14   Pb   0.971230323147076   0.788469214623404   0.043323249179970   1.0




# HOIP entry ID:                    1069
# Khazana ID:                       2919
# Organic cation source:            B.Saparov et al., Chem. Rev. 116, 4558 (2016)
# Label:                            Guanidinium Lead Chloride
# Material class:                   Hybrid organic-inorganic perovskite ( MC_ino )
# Geometry class:                   Bulk crystalline materials ( GC_cry )
# Organic cation chemical formula:  C(NH2)3
# Number of atom types:             5
# Total number of atoms:            14
# Atom types:                       C H N  Pb Cl
# Number of each atom:              1 6 3  1 3
# Bandgap, HSE06 (eV):              4.4648
# Bandgap, GGA (eV):                3.4585
# Kpoint for VBM:                   -0.375, -0.0909, 0.4286
# Kpoint for CBM:                   0, 0.0455, 0.5
# Dielectric constant, electronic:  3.4849
# Dielectric constant, ionic:       7.6807
# Dielectric constant, total:       11.1656
# Refractive index:                 1.8668
# Atomization energy (eV/atom):     -4.7383
# Relative energy1 (eV/atom):       0.32
# Relative energy2 (eV/atom):       0.6417
# Volume of the unit cell (A^3):    193.73
# Density (g/cm^3):                 3.2027
# Tool:                             VASP
# Pseudopotential:                  PAW
# Note:                             ENCUT=400eV, k-spacing_relax=0.20/Angstrom, k-spacing_bandgap=0.15/Angstrom
# Created by:                       C.Kim, T.D.Huan, S.Krishnan, R. Ramprasad