data_1
_audit_creation_method   'Generated by vasp2cif'
_cell_length_a    5.63462846535
_cell_length_b    5.63374992966
_cell_length_c    5.6264674172
_cell_angle_alpha    107.957580521
_cell_angle_beta    91.4834116191
_cell_angle_gamma    80.2469169269

_symmetry_space_group_name_H-M    'P 1'
loop_
_atom_site_label
_atom_site_type_symbol
_atom_site_fract_x
_atom_site_fract_y
_atom_site_fract_z
_atom_site_occupancy
Cl1   Cl   0.083133149113973   0.035770458232985   0.528700502335666   1.0
Cl2   Cl   0.545637304192632   0.983631197912274   0.993443764122649   1.0
Cl3   Cl   0.981430995295502   0.436470805193909   0.168439679299447   1.0
H4   H   0.345644411114527   0.480421830128260   0.334153951925011   1.0
H5   H   0.648703246216333   0.414180597833250   0.386992937091879   1.0
H6   H   0.486391796493552   0.700874550426871   0.540617068023680   1.0
H7   H   0.332130741941566   0.284276780398299   0.604740547142934   1.0
Pb8   Pb   0.049153691002313   0.878522043201500   0.993156400529626   1.0
N9   N   0.481078143060339   0.509464076887493   0.465729994323918   1.0
O10   O   0.420436521569274   0.430907659785086   0.676015155205130   1.0




# HOIP entry ID:                    1070
# Khazana ID:                       2920
# Organic cation source:            G.Kieslich et al., Chem. Sci. 6, 3430 (2015)
# Label:                            Hydroxylammonium Lead Chloride
# Material class:                   Hybrid organic-inorganic perovskite ( MC_ino )
# Geometry class:                   Bulk crystalline materials ( GC_cry )
# Organic cation chemical formula:  OHNH3
# Number of atom types:             5
# Total number of atoms:            10
# Atom types:                        H N O Pb Cl
# Number of each atom:               4 1  1 3
# Bandgap, HSE06 (eV):              4.4886
# Bandgap, GGA (eV):                3.467
# Kpoint for VBM:                   0.5, -0.3571, 0.3571
# Kpoint for CBM:                   0.5, 0.5, 0.5
# Dielectric constant, electronic:  3.6662
# Dielectric constant, ionic:       12.5911
# Dielectric constant, total:       16.2573
# Refractive index:                 1.9147
# Atomization energy (eV/atom):     -3.953
# Relative energy1 (eV/atom):       0.3069
# Relative energy2 (eV/atom):       0.7572
# Volume of the unit cell (A^3):    167.38
# Density (g/cm^3):                 3.4485
# Tool:                             VASP
# Pseudopotential:                  PAW
# Note:                             ENCUT=400eV, k-spacing_relax=0.20/Angstrom, k-spacing_bandgap=0.15/Angstrom
# Created by:                       C.Kim, T.D.Huan, S.Krishnan, R. Ramprasad