data_1
_audit_creation_method   'Generated by vasp2cif'
_cell_length_a    5.76395846484
_cell_length_b    4.32251981441
_cell_length_c    7.05936138508
_cell_angle_alpha    107.928678252
_cell_angle_beta    85.5599331656
_cell_angle_gamma    91.9734275942

_symmetry_space_group_name_H-M    'P 1'
loop_
_atom_site_label
_atom_site_type_symbol
_atom_site_fract_x
_atom_site_fract_y
_atom_site_fract_z
_atom_site_occupancy
Cl1   Cl   0.981238401601601   0.165354698779311   0.705498839974574   1.0
Cl2   Cl   0.487704315604567   0.836415195314395   0.045007083812528   1.0
Cl3   Cl   0.952655956174468   0.460400934399558   0.299576483770018   1.0
H4   H   0.503841783764251   0.907298014892170   0.365472554398309   1.0
H5   H   0.648616931961563   0.944538923722817   0.574483875543379   1.0
H6   H   0.368831012113112   0.078650258208569   0.598305384364330   1.0
H7   H   0.258319113719722   0.550998837117163   0.447160675401015   1.0
Pb8   Pb   0.989026345820108   0.812835576971509   0.002709738504237   1.0
N9   N   0.487300708623344   0.905334882501940   0.514043656563288   1.0
O10   O   0.403985430617240   0.589382678092562   0.521521707668242   1.0




# HOIP entry ID:                    1071
# Khazana ID:                       2921
# Organic cation source:            G.Kieslich et al., Chem. Sci. 6, 3430 (2015)
# Label:                            Hydroxylammonium Lead Chloride
# Material class:                   Hybrid organic-inorganic perovskite ( MC_ino )
# Geometry class:                   Bulk crystalline materials ( GC_cry )
# Organic cation chemical formula:  OHNH3
# Number of atom types:             5
# Total number of atoms:            10
# Atom types:                        H N O Pb Cl
# Number of each atom:               4 1  1 3
# Bandgap, HSE06 (eV):              4.1047
# Bandgap, GGA (eV):                3.1237
# Kpoint for VBM:                   0.5, -0.2778, 0.1667
# Kpoint for CBM:                   0.4286, 0, 0.4167
# Dielectric constant, electronic:  3.6036
# Dielectric constant, ionic:       9.0916
# Dielectric constant, total:       12.6951
# Refractive index:                 1.8983
# Atomization energy (eV/atom):     -3.9803
# Relative energy1 (eV/atom):       0.2796
# Relative energy2 (eV/atom):       0.7299
# Volume of the unit cell (A^3):    166.83
# Density (g/cm^3):                 3.4599
# Tool:                             VASP
# Pseudopotential:                  PAW
# Note:                             ENCUT=400eV, k-spacing_relax=0.20/Angstrom, k-spacing_bandgap=0.15/Angstrom
# Created by:                       C.Kim, T.D.Huan, S.Krishnan, R. Ramprasad