data_1
_audit_creation_method   'Generated by vasp2cif'
_cell_length_a    7.00024992316
_cell_length_b    4.38198511652
_cell_length_c    5.71048659227
_cell_angle_alpha    91.5163348811
_cell_angle_beta    95.7820874876
_cell_angle_gamma    71.7329097389

_symmetry_space_group_name_H-M    'P 1'
loop_
_atom_site_label
_atom_site_type_symbol
_atom_site_fract_x
_atom_site_fract_y
_atom_site_fract_z
_atom_site_occupancy
Cl1   Cl   0.751141134100891   0.352449159565474   0.148835353238375   1.0
Cl2   Cl   0.114089735892101   0.700900940899402   0.603080841773100   1.0
Cl3   Cl   0.339803401416823   0.058232981867576   0.139671392724935   1.0
H4   H   0.420066661724732   0.358733331934175   0.600464821517448   1.0
H5   H   0.639898852923153   0.194647350201521   0.473720496568802   1.0
H6   H   0.646620551369899   0.331704324380361   0.757020604938511   1.0
H7   H   0.506743051789421   0.948400296008394   0.851977108438284   1.0
Pb8   Pb   0.044379998670010   0.702091200197501   0.102123598709937   1.0
N9   N   0.572907007856507   0.222205801983684   0.630320401714627   1.0
O10   O   0.592989604256474   0.904574612961888   0.716175380375958   1.0




# HOIP entry ID:                    1072
# Khazana ID:                       2922
# Organic cation source:            G.Kieslich et al., Chem. Sci. 6, 3430 (2015)
# Label:                            Hydroxylammonium Lead Chloride
# Material class:                   Hybrid organic-inorganic perovskite ( MC_ino )
# Geometry class:                   Bulk crystalline materials ( GC_cry )
# Organic cation chemical formula:  OHNH3
# Number of atom types:             5
# Total number of atoms:            10
# Atom types:                        H N O Pb Cl
# Number of each atom:               4 1  1 3
# Bandgap, HSE06 (eV):              4.1645
# Bandgap, GGA (eV):                3.1711
# Kpoint for VBM:                   0.1667, 0.3, 0.5
# Kpoint for CBM:                   0.5, 0, 0.3571
# Dielectric constant, electronic:  3.6059
# Dielectric constant, ionic:       8.2057
# Dielectric constant, total:       11.8116
# Refractive index:                 1.8989
# Atomization energy (eV/atom):     -3.9773
# Relative energy1 (eV/atom):       0.2826
# Relative energy2 (eV/atom):       0.7329
# Volume of the unit cell (A^3):    165.49
# Density (g/cm^3):                 3.4879
# Tool:                             VASP
# Pseudopotential:                  PAW
# Note:                             ENCUT=400eV, k-spacing_relax=0.20/Angstrom, k-spacing_bandgap=0.15/Angstrom
# Created by:                       C.Kim, T.D.Huan, S.Krishnan, R. Ramprasad