data_1
_audit_creation_method   'Generated by vasp2cif'
_cell_length_a    5.57925945463
_cell_length_b    4.18482559003
_cell_length_c    7.2193033713
_cell_angle_alpha    105.877991549
_cell_angle_beta    81.3330901642
_cell_angle_gamma    94.5083777202

_symmetry_space_group_name_H-M    'P 1'
loop_
_atom_site_label
_atom_site_type_symbol
_atom_site_fract_x
_atom_site_fract_y
_atom_site_fract_z
_atom_site_occupancy
Cl1   Cl   0.865085382349868   0.930681747539118   0.767840033861653   1.0
Cl2   Cl   0.333111541357553   0.566724797579027   0.938636993919744   1.0
Cl3   Cl   0.944749101867700   0.214064649513261   0.346041245073493   1.0
H4   H   0.434059744227469   0.171328646190673   0.508218403259391   1.0
H5   H   0.541223752925220   0.973755432479756   0.654158002951092   1.0
H6   H   0.233173353993926   0.991711576812783   0.658426137813201   1.0
H7   H   0.244708232210520   0.596962302262163   0.394429216210263   1.0
Pb8   Pb   0.831838136683189   0.568549650466636   0.067547189008593   1.0
N9   N   0.402683498126031   0.976416220984838   0.572166845549823   1.0
O10   O   0.414637256258565   0.661134976171738   0.421935932352746   1.0




# HOIP entry ID:                    1073
# Khazana ID:                       2923
# Organic cation source:            G.Kieslich et al., Chem. Sci. 6, 3430 (2015)
# Label:                            Hydroxylammonium Lead Chloride
# Material class:                   Hybrid organic-inorganic perovskite ( MC_ino )
# Geometry class:                   Bulk crystalline materials ( GC_cry )
# Organic cation chemical formula:  OHNH3
# Number of atom types:             5
# Total number of atoms:            10
# Atom types:                        H N O Pb Cl
# Number of each atom:               4 1  1 3
# Bandgap, HSE06 (eV):              4.5196
# Bandgap, GGA (eV):                3.4271
# Kpoint for VBM:                   0.5, 0, 0.5
# Kpoint for CBM:                   0.0714, 0, 0.5
# Dielectric constant, electronic:  3.6605
# Dielectric constant, ionic:       7.2359
# Dielectric constant, total:       10.8964
# Refractive index:                 1.9133
# Atomization energy (eV/atom):     -3.9736
# Relative energy1 (eV/atom):       0.2863
# Relative energy2 (eV/atom):       0.7366
# Volume of the unit cell (A^3):    160.15
# Density (g/cm^3):                 3.6042
# Tool:                             VASP
# Pseudopotential:                  PAW
# Note:                             ENCUT=400eV, k-spacing_relax=0.20/Angstrom, k-spacing_bandgap=0.15/Angstrom
# Created by:                       C.Kim, T.D.Huan, S.Krishnan, R. Ramprasad