data_1
_audit_creation_method   'Generated by vasp2cif'
_cell_length_a    7.10886395853
_cell_length_b    4.25423079704
_cell_length_c    5.60563046293
_cell_angle_alpha    85.4383024588
_cell_angle_beta    79.6984662517
_cell_angle_gamma    74.7172107677

_symmetry_space_group_name_H-M    'P 1'
loop_
_atom_site_label
_atom_site_type_symbol
_atom_site_fract_x
_atom_site_fract_y
_atom_site_fract_z
_atom_site_occupancy
Cl1   Cl   0.753537273918759   0.358678919743511   0.155628726722917   1.0
Cl2   Cl   0.180454087542060   0.700637831181353   0.752960417569540   1.0
Cl3   Cl   0.331620929241552   0.091904615455547   0.221961110323456   1.0
H4   H   0.402406522021266   0.021239040410109   0.673540708721688   1.0
H5   H   0.570543785609935   0.226318333551618   0.530172789548566   1.0
H6   H   0.510453690685971   0.213655271384624   0.841933578600717   1.0
H7   H   0.690374785138765   0.714625750170619   0.856289160252231   1.0
Pb8   Pb   0.043253106663030   0.714305515974139   0.260474861158514   1.0
N9   N   0.531066949106105   0.089866773790682   0.683990387229095   1.0
O10   O   0.693268870072608   0.797997948337823   0.684038259873276   1.0




# HOIP entry ID:                    1074
# Khazana ID:                       2924
# Organic cation source:            G.Kieslich et al., Chem. Sci. 6, 3430 (2015)
# Label:                            Hydroxylammonium Lead Chloride
# Material class:                   Hybrid organic-inorganic perovskite ( MC_ino )
# Geometry class:                   Bulk crystalline materials ( GC_cry )
# Organic cation chemical formula:  OHNH3
# Number of atom types:             5
# Total number of atoms:            10
# Atom types:                        H N O Pb Cl
# Number of each atom:               4 1  1 3
# Bandgap, HSE06 (eV):              4.5186
# Bandgap, GGA (eV):                3.4195
# Kpoint for VBM:                   0.5, 0, 0.5
# Kpoint for CBM:                   0.5, 0, 0.0714
# Dielectric constant, electronic:  3.6421
# Dielectric constant, ionic:       8.9973
# Dielectric constant, total:       12.6394
# Refractive index:                 1.9084
# Atomization energy (eV/atom):     -3.9719
# Relative energy1 (eV/atom):       0.288
# Relative energy2 (eV/atom):       0.7383
# Volume of the unit cell (A^3):    160.8
# Density (g/cm^3):                 3.5896
# Tool:                             VASP
# Pseudopotential:                  PAW
# Note:                             ENCUT=400eV, k-spacing_relax=0.20/Angstrom, k-spacing_bandgap=0.15/Angstrom
# Created by:                       C.Kim, T.D.Huan, S.Krishnan, R. Ramprasad