data_1
_audit_creation_method   'Generated by vasp2cif'
_cell_length_a    5.69059267302
_cell_length_b    4.33097982519
_cell_length_c    6.88575996346
_cell_angle_alpha    106.381300675
_cell_angle_beta    86.789691515
_cell_angle_gamma    89.5096066355

_symmetry_space_group_name_H-M    'P 1'
loop_
_atom_site_label
_atom_site_type_symbol
_atom_site_fract_x
_atom_site_fract_y
_atom_site_fract_z
_atom_site_occupancy
Cl1   Cl   0.838959918354576   0.087022602328460   0.806105904659333   1.0
Cl2   Cl   0.321327374668314   0.639659424281952   0.952659413681374   1.0
Cl3   Cl   0.998278697772164   0.342326488631052   0.376548269056187   1.0
H4   H   0.239952824103113   0.120517914160445   0.551521534686557   1.0
H5   H   0.510879340904708   0.117156501018350   0.653475237793977   1.0
H6   H   0.295754104346976   0.895295343269666   0.715470789007199   1.0
H7   H   0.313658046913773   0.594007406429796   0.382534932970799   1.0
Pb8   Pb   0.835015311401328   0.717540845571357   0.094533010817926   1.0
N9   N   0.364834790509320   0.985827622265070   0.599457581071988   1.0
O10   O   0.456249591025745   0.721785852043887   0.430063326254711   1.0




# HOIP entry ID:                    1075
# Khazana ID:                       2925
# Organic cation source:            G.Kieslich et al., Chem. Sci. 6, 3430 (2015)
# Label:                            Hydroxylammonium Lead Chloride
# Material class:                   Hybrid organic-inorganic perovskite ( MC_ino )
# Geometry class:                   Bulk crystalline materials ( GC_cry )
# Organic cation chemical formula:  OHNH3
# Number of atom types:             5
# Total number of atoms:            10
# Atom types:                        H N O Pb Cl
# Number of each atom:               4 1  1 3
# Bandgap, HSE06 (eV):              4.6039
# Bandgap, GGA (eV):                3.5107
# Kpoint for VBM:                   0.4286, 0, 0.4167
# Kpoint for CBM:                   0, 0, 0.4167
# Dielectric constant, electronic:  3.5775
# Dielectric constant, ionic:       7.7414
# Dielectric constant, total:       11.319
# Refractive index:                 1.8914
# Atomization energy (eV/atom):     -3.974
# Relative energy1 (eV/atom):       0.2859
# Relative energy2 (eV/atom):       0.7362
# Volume of the unit cell (A^3):    162.51
# Density (g/cm^3):                 3.5518
# Tool:                             VASP
# Pseudopotential:                  PAW
# Note:                             ENCUT=400eV, k-spacing_relax=0.20/Angstrom, k-spacing_bandgap=0.15/Angstrom
# Created by:                       C.Kim, T.D.Huan, S.Krishnan, R. Ramprasad