data_1
_audit_creation_method   'Generated by vasp2cif'
_cell_length_a    5.82314101282
_cell_length_b    5.81333707457
_cell_length_c    5.74551281986
_cell_angle_alpha    81.3174305729
_cell_angle_beta    83.8157061539
_cell_angle_gamma    86.2868188154

_symmetry_space_group_name_H-M    'P 1'
loop_
_atom_site_label
_atom_site_type_symbol
_atom_site_fract_x
_atom_site_fract_y
_atom_site_fract_z
_atom_site_occupancy
Pb1   Pb   0.632356755404672   0.351390598997625   0.494949904026733   1.0
Cl2   Cl   0.668470927025183   0.856312193616560   0.472583887907973   1.0
Cl3   Cl   0.129819335102518   0.335919478663577   0.500447202376854   1.0
Cl4   Cl   0.589272406603556   0.416862625683386   0.995559659539843   1.0
N5   N   0.085504302386148   0.742420464974714   0.858166464138662   1.0
N6   N   0.235074985077425   0.937776123863742   0.129125015885705   1.0
H7   H   0.216350417303005   0.617306144184226   0.862794011231969   1.0
H8   H   0.377717173504266   0.828278126474011   0.144904994446001   1.0
H9   H   0.961316773022638   0.737330385579668   0.747430209387304   1.0
H10   H   0.212766551921391   0.066368033088487   0.233433457910458   1.0
H11   H   0.930549288656195   0.036140691066223   0.981484858727413   1.0
C12   C   0.076961083992991   0.910885133807803   0.989020334421127   1.0




# HOIP entry ID:                    1076
# Khazana ID:                       2926
# Organic cation source:            T.D.Huan et al., Phys. Rev. B 93,094105(2016)
# Label:                            Formamidinium Lead Chloride
# Material class:                   Hybrid organic-inorganic perovskite ( MC_ino )
# Geometry class:                   Bulk crystalline materials ( GC_cry )
# Organic cation chemical formula:  HC(NH2)2
# Number of atom types:             5
# Total number of atoms:            12
# Atom types:                       C H N  Pb Cl
# Number of each atom:              1 5 2  1 3
# Bandgap, HSE06 (eV):              3.2914
# Bandgap, GGA (eV):                2.3754
# Kpoint for VBM:                   0.5, 0.5, 0.5
# Kpoint for CBM:                   0.4474, 0.4474, 0.4474
# Dielectric constant, electronic:  3.6964
# Dielectric constant, ionic:       10.7181
# Dielectric constant, total:       14.4145
# Refractive index:                 1.9226
# Atomization energy (eV/atom):     -4.5763
# Relative energy1 (eV/atom):       -0.1527
# Relative energy2 (eV/atom):       0.2226
# Volume of the unit cell (A^3):    190.92
# Density (g/cm^3):                 3.1192
# Tool:                             VASP
# Pseudopotential:                  PAW
# Note:                             ENCUT=400eV, k-spacing_relax=0.20/Angstrom, k-spacing_bandgap=0.15/Angstrom
# Created by:                       C.Kim, T.D.Huan, S.Krishnan, R. Ramprasad