data_1
_audit_creation_method   'Generated by vasp2cif'
_cell_length_a    5.75145718635
_cell_length_b    5.81672090699
_cell_length_c    5.78349422851
_cell_angle_alpha    89.9673952036
_cell_angle_beta    101.869742905
_cell_angle_gamma    92.7635321702

_symmetry_space_group_name_H-M    'P 1'
loop_
_atom_site_label
_atom_site_type_symbol
_atom_site_fract_x
_atom_site_fract_y
_atom_site_fract_z
_atom_site_occupancy
Pb1   Pb   0.515962215442713   0.385950028090811   0.657059854836241   1.0
Cl2   Cl   0.497413523922219   0.886137189971791   0.639484618319401   1.0
Cl3   Cl   0.460288666346543   0.340268284608683   0.150566657169257   1.0
Cl4   Cl   0.014654816470816   0.388228499383352   0.573684403790843   1.0
N5   N   0.143330346336356   0.806193819638551   0.028127680010790   1.0
N6   N   0.862973901161190   0.871671546665951   0.256902753446567   1.0
H7   H   0.187718647268476   0.649324349222603   0.098284521497874   1.0
H8   H   0.889638035572325   0.720962283002805   0.347382538451050   1.0
H9   H   0.236192660021459   0.866690458386955   0.906499906919116   1.0
H10   H   0.745565334098337   0.979924932954845   0.301316296554567   1.0
H11   H   0.958803934414753   0.100899294197582   0.016544605088853   1.0
C12   C   0.986825882615413   0.933709269127483   0.097346146915918   1.0




# HOIP entry ID:                    1077
# Khazana ID:                       2927
# Organic cation source:            T.D.Huan et al., Phys. Rev. B 93,094105(2016)
# Label:                            Formamidinium Lead Chloride
# Material class:                   Hybrid organic-inorganic perovskite ( MC_ino )
# Geometry class:                   Bulk crystalline materials ( GC_cry )
# Organic cation chemical formula:  HC(NH2)2
# Number of atom types:             5
# Total number of atoms:            12
# Atom types:                       C H N  Pb Cl
# Number of each atom:              1 5 2  1 3
# Bandgap, HSE06 (eV):              3.5659
# Bandgap, GGA (eV):                2.6687
# Kpoint for VBM:                   0.5, 0.5, 0.5
# Kpoint for CBM:                   -0.4286, -0.4286, 0.4286
# Dielectric constant, electronic:  3.6906
# Dielectric constant, ionic:       10.2866
# Dielectric constant, total:       13.9772
# Refractive index:                 1.9211
# Atomization energy (eV/atom):     -4.575
# Relative energy1 (eV/atom):       -0.1513
# Relative energy2 (eV/atom):       0.2239
# Volume of the unit cell (A^3):    189.12
# Density (g/cm^3):                 3.1489
# Tool:                             VASP
# Pseudopotential:                  PAW
# Note:                             ENCUT=400eV, k-spacing_relax=0.20/Angstrom, k-spacing_bandgap=0.15/Angstrom
# Created by:                       C.Kim, T.D.Huan, S.Krishnan, R. Ramprasad