data_1
_audit_creation_method   'Generated by vasp2cif'
_cell_length_a    5.687460898
_cell_length_b    6.11568474596
_cell_length_c    5.70171281839
_cell_angle_alpha    101.056597008
_cell_angle_beta    99.1526889683
_cell_angle_gamma    74.0480376383

_symmetry_space_group_name_H-M    'P 1'
loop_
_atom_site_label
_atom_site_type_symbol
_atom_site_fract_x
_atom_site_fract_y
_atom_site_fract_z
_atom_site_occupancy
Pb1   Pb   0.377603322753330   0.484475098776052   0.398620393288937   1.0
Cl2   Cl   0.514563238160598   0.921683973388298   0.235246903594422   1.0
Cl3   Cl   0.528067158555579   0.319581950853824   0.835242851131348   1.0
Cl4   Cl   0.935123385504191   0.369731174909440   0.424960523425824   1.0
N5   N   0.916977030606070   0.682296073025313   0.992859186839851   1.0
N6   N   0.195763695036767   0.870864836229487   0.666111574310861   1.0
H7   H   0.124445474673124   0.813087578287252   0.789639203793477   1.0
H8   H   0.058701610971049   0.993030515904067   0.590075177772860   1.0
H9   H   0.838323053846750   0.544956237713620   0.963185722915050   1.0
H10   H   0.324324262525948   0.955606696791087   0.754599820692299   1.0
H11   H   0.865422048553114   0.028196805521098   0.144337469515101   1.0
C12   C   0.807025718813563   0.869019058600401   0.103131172720033   1.0




# HOIP entry ID:                    1078
# Khazana ID:                       2928
# Organic cation source:            T.D.Huan et al., Phys. Rev. B 93,094105(2016)
# Label:                            Formamidinium Lead Chloride
# Material class:                   Hybrid organic-inorganic perovskite ( MC_ino )
# Geometry class:                   Bulk crystalline materials ( GC_cry )
# Organic cation chemical formula:  HC(NH2)2
# Number of atom types:             5
# Total number of atoms:            12
# Atom types:                       C H N  Pb Cl
# Number of each atom:              1 5 2  1 3
# Bandgap, HSE06 (eV):              4.2872
# Bandgap, GGA (eV):                3.1711
# Kpoint for VBM:                   -0.4286, -0.4286, 0.4286
# Kpoint for CBM:                   0.5, 0.5, 0.5
# Dielectric constant, electronic:  3.4862
# Dielectric constant, ionic:       5.6323
# Dielectric constant, total:       9.1185
# Refractive index:                 1.8671
# Atomization energy (eV/atom):     -4.4251
# Relative energy1 (eV/atom):       -0.0015
# Relative energy2 (eV/atom):       0.3737
# Volume of the unit cell (A^3):    185.95
# Density (g/cm^3):                 3.2026
# Tool:                             VASP
# Pseudopotential:                  PAW
# Note:                             ENCUT=400eV, k-spacing_relax=0.20/Angstrom, k-spacing_bandgap=0.15/Angstrom
# Created by:                       C.Kim, T.D.Huan, S.Krishnan, R. Ramprasad