data_1
_audit_creation_method   'Generated by vasp2cif'
_cell_length_a    6.11407042182
_cell_length_b    6.24887518292
_cell_length_c    6.25294774335
_cell_angle_alpha    90.0865949522
_cell_angle_beta    91.070238112
_cell_angle_gamma    89.5906842547

_symmetry_space_group_name_H-M    'P 1'
loop_
_atom_site_label
_atom_site_type_symbol
_atom_site_fract_x
_atom_site_fract_y
_atom_site_fract_z
_atom_site_occupancy
C1   C   0.296650174962693   0.350388622712110   0.478881757271630   1.0
C2   C   0.606011508211523   0.515999055479348   0.288332958960090   1.0
C3   C   0.600229781337099   0.520216455213166   0.682588144506511   1.0
C4   C   0.338297602549979   0.742495417666944   0.476655476526268   1.0
H5   H   0.458200055450192   0.870308652150001   0.478866900337657   1.0
H6   H   0.238010527527131   0.747358171428637   0.331710321059980   1.0
H7   H   0.197991527349743   0.363168024534559   0.332904270313918   1.0
H8   H   0.502918922593352   0.527628727084348   0.145241682743588   1.0
H9   H   0.493017197458286   0.536680435752217   0.818517053273617   1.0
H10   H   0.716150643823013   0.650613565356025   0.677168584317386   1.0
H11   H   0.721315636787054   0.647468871708661   0.297369299563655   1.0
H12   H   0.237631026986513   0.748979191957055   0.617456846205833   1.0
H13   H   0.684560085176841   0.366651349293498   0.684915820713108   1.0
H14   H   0.386554012914608   0.199775554986601   0.484399779992501   1.0
H15   H   0.691811689836385   0.362877293563074   0.294541803996260   1.0
H16   H   0.195606727770723   0.368675615606016   0.618989206449733   1.0
Cl17   Cl   0.425482761528905   0.044075153995863   0.980150161231030   1.0
Cl18   Cl   0.038921103108393   0.573171126409285   0.980750823127991   1.0
Cl19   Cl   0.884793202050872   0.023885007413789   0.527213582598883   1.0
N20   N   0.460316175038777   0.531193673140692   0.480811329354303   1.0
Pb21   Pb   0.970559637537860   0.017140034548092   0.973184197455012   1.0




# HOIP entry ID:                    1079
# Khazana ID:                       2929
# Organic cation source:            B.Saparov et al., Chem. Rev. 116, 4558 (2016)
# Label:                            Tetramethylammonium Lead Chloride
# Material class:                   Hybrid organic-inorganic perovskite ( MC_ino )
# Geometry class:                   Bulk crystalline materials ( GC_cry )
# Organic cation chemical formula:  (CH3)4N
# Number of atom types:             5
# Total number of atoms:            21
# Atom types:                       C H N  Pb Cl
# Number of each atom:              4 12 1  1 3
# Bandgap, HSE06 (eV):              3.8987
# Bandgap, GGA (eV):                2.9253
# Kpoint for VBM:                   0.5, 0.5, 0.5
# Kpoint for CBM:                   0.5, 0.5, 0.5
# Dielectric constant, electronic:  3.3285
# Dielectric constant, ionic:       4.751
# Dielectric constant, total:       8.0795
# Refractive index:                 1.8244
# Atomization energy (eV/atom):     -4.5596
# Relative energy1 (eV/atom):       -0.0516
# Relative energy2 (eV/atom):       0.1366
# Volume of the unit cell (A^3):    238.85
# Density (g/cm^3):                 2.6955
# Tool:                             VASP
# Pseudopotential:                  PAW
# Note:                             ENCUT=400eV, k-spacing_relax=0.20/Angstrom, k-spacing_bandgap=0.15/Angstrom
# Created by:                       C.Kim, T.D.Huan, S.Krishnan, R. Ramprasad