data_1
_audit_creation_method   'Generated by vasp2cif'
_cell_length_a    5.80141863322
_cell_length_b    5.57691283644
_cell_length_c    5.70488698925
_cell_angle_alpha    95.4692491285
_cell_angle_beta    87.1004681646
_cell_angle_gamma    88.3091329525

_symmetry_space_group_name_H-M    'P 1'
loop_
_atom_site_label
_atom_site_type_symbol
_atom_site_fract_x
_atom_site_fract_y
_atom_site_fract_z
_atom_site_occupancy
Cl1   Cl   0.916798952126769   0.941185505777952   0.564620422411416   1.0
Cl2   Cl   0.474936846009001   0.989984487472270   0.041022322256914   1.0
Cl3   Cl   0.035695208235190   0.506087813186909   0.970813767064904   1.0
H4   H   0.277270892763042   0.573341435704805   0.525032750506952   1.0
H5   H   0.520171171307737   0.690835970321672   0.438298887815343   1.0
H6   H   0.487934177755747   0.327120468538766   0.760706606883303   1.0
H7   H   0.727482110687703   0.462510060951551   0.679005629396649   1.0
H8   H   0.517207002667760   0.624459815610798   0.839826870216584   1.0
Pb9   Pb   0.977430082669805   0.017028968907660   0.081537754028894   1.0
N10   N   0.449113764831580   0.533407448377432   0.482044108884068   1.0
N11   N   0.550689790945654   0.485068025150149   0.705700880535204   1.0




# HOIP entry ID:                    1082
# Khazana ID:                       2932
# Organic cation source:            B.Saparov et al., Chem. Rev. 116, 4558 (2016)
# Label:                            Hydrazinium Lead Chloride
# Material class:                   Hybrid organic-inorganic perovskite ( MC_ino )
# Geometry class:                   Bulk crystalline materials ( GC_cry )
# Organic cation chemical formula:  NH2NH3
# Number of atom types:             4
# Total number of atoms:            11
# Atom types:                        H N  Pb Cl
# Number of each atom:               5 2  1 3
# Bandgap, HSE06 (eV):              3.8474
# Bandgap, GGA (eV):                2.9813
# Kpoint for VBM:                   0.5, 0.5, 0.5
# Kpoint for CBM:                   0.5, 0.5, 0.5
# Dielectric constant, electronic:  3.5457
# Dielectric constant, ionic:       8.016
# Dielectric constant, total:       11.5617
# Refractive index:                 1.883
# Atomization energy (eV/atom):     -4.1199
# Relative energy1 (eV/atom):       0.3592
# Relative energy2 (eV/atom):       0.7686
# Volume of the unit cell (A^3):    183.39
# Density (g/cm^3):                 3.1385
# Tool:                             VASP
# Pseudopotential:                  PAW
# Note:                             ENCUT=400eV, k-spacing_relax=0.20/Angstrom, k-spacing_bandgap=0.15/Angstrom
# Created by:                       C.Kim, T.D.Huan, S.Krishnan, R. Ramprasad