data_1
_audit_creation_method   'Generated by vasp2cif'
_cell_length_a    8.09008845132
_cell_length_b    5.56443945902
_cell_length_c    5.74311494876
_cell_angle_alpha    106.115008498
_cell_angle_beta    46.1655516451
_cell_angle_gamma    113.66514891

_symmetry_space_group_name_H-M    'P 1'
loop_
_atom_site_label
_atom_site_type_symbol
_atom_site_fract_x
_atom_site_fract_y
_atom_site_fract_z
_atom_site_occupancy
Cl1   Cl   0.574841960232966   0.912508244466508   0.503956511303365   1.0
Cl2   Cl   0.151730426418347   0.964578041023486   0.435276376239067   1.0
Cl3   Cl   0.944313337868159   0.488810265075998   0.040020780163545   1.0
H4   H   0.403475051075823   0.624570634854948   0.198200938279420   1.0
H5   H   0.497433786438336   0.658581940628387   0.842368321415520   1.0
H6   H   0.674036935289735   0.432325805685615   0.993260395076497   1.0
H7   H   0.678740424360051   0.302235533359145   0.686961527539253   1.0
H8   H   0.827883349204868   0.623805333249152   0.681129154158526   1.0
Pb9   Pb   0.113797858153255   0.056870322451751   0.987733830530594   1.0
N10   N   0.451333571959729   0.527508652110477   0.988511108266920   1.0
N11   N   0.672893298998638   0.469355227094596   0.826901057027264   1.0




# HOIP entry ID:                    1083
# Khazana ID:                       2933
# Organic cation source:            B.Saparov et al., Chem. Rev. 116, 4558 (2016)
# Label:                            Hydrazinium Lead Chloride
# Material class:                   Hybrid organic-inorganic perovskite ( MC_ino )
# Geometry class:                   Bulk crystalline materials ( GC_cry )
# Organic cation chemical formula:  NH2NH3
# Number of atom types:             4
# Total number of atoms:            11
# Atom types:                        H N  Pb Cl
# Number of each atom:               5 2  1 3
# Bandgap, HSE06 (eV):              4.3591
# Bandgap, GGA (eV):                3.3652
# Kpoint for VBM:                   0.1, 0.375, 0.5
# Kpoint for CBM:                   0, 0.4375, 0.4545
# Dielectric constant, electronic:  3.6835
# Dielectric constant, ionic:       10.6855
# Dielectric constant, total:       14.369
# Refractive index:                 1.9192
# Atomization energy (eV/atom):     -4.1261
# Relative energy1 (eV/atom):       0.3531
# Relative energy2 (eV/atom):       0.7624
# Volume of the unit cell (A^3):    170.81
# Density (g/cm^3):                 3.3697
# Tool:                             VASP
# Pseudopotential:                  PAW
# Note:                             ENCUT=400eV, k-spacing_relax=0.20/Angstrom, k-spacing_bandgap=0.15/Angstrom
# Created by:                       C.Kim, T.D.Huan, S.Krishnan, R. Ramprasad