data_1
_audit_creation_method   'Generated by vasp2cif'
_cell_length_a    3.93297777655
_cell_length_b    5.8914282428
_cell_length_c    7.98689820731
_cell_angle_alpha    82.3660270674
_cell_angle_beta    108.108297397
_cell_angle_gamma    112.482161152

_symmetry_space_group_name_H-M    'P 1'
loop_
_atom_site_label
_atom_site_type_symbol
_atom_site_fract_x
_atom_site_fract_y
_atom_site_fract_z
_atom_site_occupancy
Cl1   Cl   0.176555317659897   0.971842801668537   0.561651453487357   1.0
Cl2   Cl   0.537899919270032   0.981906299606443   0.132197215280946   1.0
Cl3   Cl   0.641596840286461   0.513629400682603   0.862446861363281   1.0
H4   H   0.335130413934365   0.475983193864607   0.521255769512763   1.0
H5   H   0.360367098358381   0.716934147798831   0.387208502651354   1.0
H6   H   0.666168061652854   0.461744764387369   0.327603782965099   1.0
H7   H   0.216592107411451   0.242498226557721   0.272442682206609   1.0
H8   H   0.315097704265710   0.511345725090216   0.158993119451210   1.0
Pb9   Pb   0.891088545836666   0.045059638997365   0.839239804366215   1.0
N10   N   0.227785045771156   0.529895737718967   0.394420782698305   1.0
N11   N   0.370328945552949   0.429200063627292   0.282000026016895   1.0




# HOIP entry ID:                    1084
# Khazana ID:                       2934
# Organic cation source:            B.Saparov et al., Chem. Rev. 116, 4558 (2016)
# Label:                            Hydrazinium Lead Chloride
# Material class:                   Hybrid organic-inorganic perovskite ( MC_ino )
# Geometry class:                   Bulk crystalline materials ( GC_cry )
# Organic cation chemical formula:  NH2NH3
# Number of atom types:             4
# Total number of atoms:            11
# Atom types:                        H N  Pb Cl
# Number of each atom:               5 2  1 3
# Bandgap, HSE06 (eV):              4.4639
# Bandgap, GGA (eV):                3.4481
# Kpoint for VBM:                   0.1, 0.5, 0.3333
# Kpoint for CBM:                   0, 0.5, 0
# Dielectric constant, electronic:  3.7169
# Dielectric constant, ionic:       10.6938
# Dielectric constant, total:       14.4107
# Refractive index:                 1.9279
# Atomization energy (eV/atom):     -4.1395
# Relative energy1 (eV/atom):       0.3396
# Relative energy2 (eV/atom):       0.749
# Volume of the unit cell (A^3):    162.51
# Density (g/cm^3):                 3.5418
# Tool:                             VASP
# Pseudopotential:                  PAW
# Note:                             ENCUT=400eV, k-spacing_relax=0.20/Angstrom, k-spacing_bandgap=0.15/Angstrom
# Created by:                       C.Kim, T.D.Huan, S.Krishnan, R. Ramprasad