data_1
_audit_creation_method   'Generated by vasp2cif'
_cell_length_a    6.94135547568
_cell_length_b    5.68604650933
_cell_length_c    4.46517048257
_cell_angle_alpha    91.0388712965
_cell_angle_beta    72.3011391689
_cell_angle_gamma    87.8093178853

_symmetry_space_group_name_H-M    'P 1'
loop_
_atom_site_label
_atom_site_type_symbol
_atom_site_fract_x
_atom_site_fract_y
_atom_site_fract_z
_atom_site_occupancy
Cl1   Cl   0.470278086539210   0.111888222776635   0.375817848245390   1.0
Cl2   Cl   0.909237287276135   0.944103006839470   0.626235172315589   1.0
Cl3   Cl   0.049673874782656   0.441938878685583   0.070545811658846   1.0
H4   H   0.473598967780461   0.506086049582734   0.158894154349476   1.0
H5   H   0.622366021053310   0.734458325532472   0.054828476051064   1.0
H6   H   0.792446145768999   0.369524896310630   0.846120797033649   1.0
H7   H   0.620655940088753   0.336415853647601   0.648341506125774   1.0
H8   H   0.781135492194899   0.559352417127926   0.573761819781453   1.0
Pb9   Pb   0.191763217290571   0.951529167973177   0.986098720045632   1.0
N10   N   0.542179111427735   0.612310593161084   0.976676917751405   1.0
N11   N   0.692985855797232   0.457532588362724   0.748658776641790   1.0




# HOIP entry ID:                    1085
# Khazana ID:                       2935
# Organic cation source:            B.Saparov et al., Chem. Rev. 116, 4558 (2016)
# Label:                            Hydrazinium Lead Chloride
# Material class:                   Hybrid organic-inorganic perovskite ( MC_ino )
# Geometry class:                   Bulk crystalline materials ( GC_cry )
# Organic cation chemical formula:  NH2NH3
# Number of atom types:             4
# Total number of atoms:            11
# Atom types:                        H N  Pb Cl
# Number of each atom:               5 2  1 3
# Bandgap, HSE06 (eV):              4.6678
# Bandgap, GGA (eV):                3.518
# Kpoint for VBM:                   0.1842, 0.5, 0.1842
# Kpoint for CBM:                   0.4167, 0.1429, 0
# Dielectric constant, electronic:  3.5865
# Dielectric constant, ionic:       8.2018
# Dielectric constant, total:       11.7883
# Refractive index:                 1.8938
# Atomization energy (eV/atom):     -4.1353
# Relative energy1 (eV/atom):       0.3439
# Relative energy2 (eV/atom):       0.7532
# Volume of the unit cell (A^3):    167.69
# Density (g/cm^3):                 3.4324
# Tool:                             VASP
# Pseudopotential:                  PAW
# Note:                             ENCUT=400eV, k-spacing_relax=0.20/Angstrom, k-spacing_bandgap=0.15/Angstrom
# Created by:                       C.Kim, T.D.Huan, S.Krishnan, R. Ramprasad