data_1
_audit_creation_method   'Generated by vasp2cif'
_cell_length_a    7.4895425975
_cell_length_b    4.04011385901
_cell_length_c    5.93712787889
_cell_angle_alpha    91.0339933406
_cell_angle_beta    94.9531126286
_cell_angle_gamma    71.7866469485

_symmetry_space_group_name_H-M    'P 1'
loop_
_atom_site_label
_atom_site_type_symbol
_atom_site_fract_x
_atom_site_fract_y
_atom_site_fract_z
_atom_site_occupancy
Cl1   Cl   0.431904792524216   0.248420322496806   0.047295153000800   1.0
Cl2   Cl   0.110971714464642   0.928432419671202   0.494742784666687   1.0
Cl3   Cl   0.841961254348735   0.588832823224989   0.967115295619920   1.0
H4   H   0.613382677567034   0.372100924251928   0.732900362973332   1.0
H5   H   0.444730097338807   0.457568460550293   0.523478821007352   1.0
H6   H   0.828437662678570   0.420336255233562   0.478941497413512   1.0
H7   H   0.652897615881669   0.529037929573054   0.274635711439322   1.0
H8   H   0.651037296005197   0.803421979668925   0.494735827090421   1.0
Pb9   Pb   0.136263980115711   0.917763540915809   0.998870194857001   1.0
N10   N   0.586442165547845   0.337038611653603   0.563299635688476   1.0
N11   N   0.684500743527565   0.541336732759713   0.446934716243170   1.0




# HOIP entry ID:                    1086
# Khazana ID:                       2936
# Organic cation source:            B.Saparov et al., Chem. Rev. 116, 4558 (2016)
# Label:                            Hydrazinium Lead Chloride
# Material class:                   Hybrid organic-inorganic perovskite ( MC_ino )
# Geometry class:                   Bulk crystalline materials ( GC_cry )
# Organic cation chemical formula:  NH2NH3
# Number of atom types:             4
# Total number of atoms:            11
# Atom types:                        H N  Pb Cl
# Number of each atom:               5 2  1 3
# Bandgap, HSE06 (eV):              4.0308
# Bandgap, GGA (eV):                3.096
# Kpoint for VBM:                   0.5, 0.0455, 0.5
# Kpoint for CBM:                   0.1, 0.0455, 0.5
# Dielectric constant, electronic:  3.6209
# Dielectric constant, ionic:       9.9953
# Dielectric constant, total:       13.6162
# Refractive index:                 1.9029
# Atomization energy (eV/atom):     -4.1416
# Relative energy1 (eV/atom):       0.3376
# Relative energy2 (eV/atom):       0.7469
# Volume of the unit cell (A^3):    170
# Density (g/cm^3):                 3.3857
# Tool:                             VASP
# Pseudopotential:                  PAW
# Note:                             ENCUT=400eV, k-spacing_relax=0.20/Angstrom, k-spacing_bandgap=0.15/Angstrom
# Created by:                       C.Kim, T.D.Huan, S.Krishnan, R. Ramprasad