data_1
_audit_creation_method   'Generated by vasp2cif'
_cell_length_a    7.41912164674
_cell_length_b    5.5107475638
_cell_length_c    4.45592889402
_cell_angle_alpha    90.2002356934
_cell_angle_beta    106.980620871
_cell_angle_gamma    76.3889083227

_symmetry_space_group_name_H-M    'P 1'
loop_
_atom_site_label
_atom_site_type_symbol
_atom_site_fract_x
_atom_site_fract_y
_atom_site_fract_z
_atom_site_occupancy
Cl1   Cl   0.517935152787228   0.995779180247815   0.147011295791772   1.0
Cl2   Cl   0.085469586370506   0.988404444634996   0.426130567103228   1.0
Cl3   Cl   0.954039066077724   0.525139181980195   0.861090836013514   1.0
H4   H   0.484058935634124   0.617606416439815   0.450554025991081   1.0
H5   H   0.467891659411344   0.625523245745058   0.808072303651039   1.0
H6   H   0.179206709154479   0.565078033309873   0.444344603384692   1.0
H7   H   0.315729994984808   0.295157626724188   0.355938419530527   1.0
H8   H   0.290141150241112   0.318766014619531   0.713196907853162   1.0
Pb9   Pb   0.813263434983648   0.066065045782866   0.796566036491783   1.0
N10   N   0.482634091883708   0.505760121942450   0.634113488874481   1.0
N11   N   0.302870218471295   0.419120688573182   0.528331515314753   1.0




# HOIP entry ID:                    1087
# Khazana ID:                       2937
# Organic cation source:            B.Saparov et al., Chem. Rev. 116, 4558 (2016)
# Label:                            Hydrazinium Lead Chloride
# Material class:                   Hybrid organic-inorganic perovskite ( MC_ino )
# Geometry class:                   Bulk crystalline materials ( GC_cry )
# Organic cation chemical formula:  NH2NH3
# Number of atom types:             4
# Total number of atoms:            11
# Atom types:                        H N  Pb Cl
# Number of each atom:               5 2  1 3
# Bandgap, HSE06 (eV):              4.5776
# Bandgap, GGA (eV):                3.4717
# Kpoint for VBM:                   0.5, 0.5, 0
# Kpoint for CBM:                   0.5, 0.0714, 0
# Dielectric constant, electronic:  3.5499
# Dielectric constant, ionic:       7.7308
# Dielectric constant, total:       11.2807
# Refractive index:                 1.8841
# Atomization energy (eV/atom):     -4.1349
# Relative energy1 (eV/atom):       0.3443
# Relative energy2 (eV/atom):       0.7536
# Volume of the unit cell (A^3):    168.93
# Density (g/cm^3):                 3.4072
# Tool:                             VASP
# Pseudopotential:                  PAW
# Note:                             ENCUT=400eV, k-spacing_relax=0.20/Angstrom, k-spacing_bandgap=0.15/Angstrom
# Created by:                       C.Kim, T.D.Huan, S.Krishnan, R. Ramprasad