data_1
_audit_creation_method   'Generated by vasp2cif'
_cell_length_a    7.72879725489
_cell_length_b    3.96091634755
_cell_length_c    5.69346338228
_cell_angle_alpha    88.8664090529
_cell_angle_beta    89.5336614548
_cell_angle_gamma    78.2445152513

_symmetry_space_group_name_H-M    'P 1'
loop_
_atom_site_label
_atom_site_type_symbol
_atom_site_fract_x
_atom_site_fract_y
_atom_site_fract_z
_atom_site_occupancy
Cl1   Cl   0.217985831119609   0.556798142936560   0.007576927148773   1.0
Cl2   Cl   0.965645007659895   0.263711134945622   0.511900689293693   1.0
Cl3   Cl   0.640015947390632   0.796544694566484   0.014480883918569   1.0
H4   H   0.565674440488261   0.459262985619153   0.674621180805948   1.0
H5   H   0.589172340589783   0.463915377024041   0.386369499459776   1.0
H6   H   0.279393945346863   0.755744574036519   0.644020139817396   1.0
H7   H   0.414794688871414   0.987964263975481   0.506795067737517   1.0
H8   H   0.296466224324167   0.751456224979111   0.348344744103991   1.0
Pb9   Pb   0.927508687262522   0.174397923629328   0.012398863091278   1.0
N10   N   0.501694788855663   0.441052149661896   0.519463492538057   1.0
N11   N   0.364788098091219   0.760842528625761   0.503398512084982   1.0




# HOIP entry ID:                    1088
# Khazana ID:                       2938
# Organic cation source:            B.Saparov et al., Chem. Rev. 116, 4558 (2016)
# Label:                            Hydrazinium Lead Chloride
# Material class:                   Hybrid organic-inorganic perovskite ( MC_ino )
# Geometry class:                   Bulk crystalline materials ( GC_cry )
# Organic cation chemical formula:  NH2NH3
# Number of atom types:             4
# Total number of atoms:            11
# Atom types:                        H N  Pb Cl
# Number of each atom:               5 2  1 3
# Bandgap, HSE06 (eV):              4.1124
# Bandgap, GGA (eV):                3.2008
# Kpoint for VBM:                   0.5, 0, 0.5
# Kpoint for CBM:                   0.1, 0.4, 0.3571
# Dielectric constant, electronic:  3.5958
# Dielectric constant, ionic:       7.4381
# Dielectric constant, total:       11.034
# Refractive index:                 1.8963
# Atomization energy (eV/atom):     -4.139
# Relative energy1 (eV/atom):       0.3401
# Relative energy2 (eV/atom):       0.7495
# Volume of the unit cell (A^3):    170.6
# Density (g/cm^3):                 3.3738
# Tool:                             VASP
# Pseudopotential:                  PAW
# Note:                             ENCUT=400eV, k-spacing_relax=0.20/Angstrom, k-spacing_bandgap=0.15/Angstrom
# Created by:                       C.Kim, T.D.Huan, S.Krishnan, R. Ramprasad