data_1
_audit_creation_method   'Generated by vasp2cif'
_cell_length_a    5.84904788921
_cell_length_b    3.98029649434
_cell_length_c    7.66766172223
_cell_angle_alpha    101.335667713
_cell_angle_beta    93.7882046945
_cell_angle_gamma    68.4793097996

_symmetry_space_group_name_H-M    'P 1'
loop_
_atom_site_label
_atom_site_type_symbol
_atom_site_fract_x
_atom_site_fract_y
_atom_site_fract_z
_atom_site_occupancy
Cl1   Cl   0.979525886092787   0.528576847668688   0.750015648009814   1.0
Cl2   Cl   0.528109037610321   0.360121152714619   0.035314826638746   1.0
Cl3   Cl   0.993304033707936   0.735951616421133   0.316273096233900   1.0
H4   H   0.507096791826910   0.900172540732541   0.364878231302448   1.0
H5   H   0.258469002922773   0.111279494635809   0.495385640092721   1.0
H6   H   0.747146272713245   0.086047073351750   0.569880200352237   1.0
H7   H   0.502813624326421   0.471336884121904   0.554816600708122   1.0
H8   H   0.528197237573039   0.248633639335395   0.727413622813266   1.0
Pb9   Pb   0.069894237396312   0.089781231786787   0.033262876815940   1.0
N10   N   0.443378482087169   0.962160313129672   0.493280144938296   1.0
N11   N   0.560135393743131   0.212939206101737   0.592179112094485   1.0




# HOIP entry ID:                    1089
# Khazana ID:                       2939
# Organic cation source:            B.Saparov et al., Chem. Rev. 116, 4558 (2016)
# Label:                            Hydrazinium Lead Chloride
# Material class:                   Hybrid organic-inorganic perovskite ( MC_ino )
# Geometry class:                   Bulk crystalline materials ( GC_cry )
# Organic cation chemical formula:  NH2NH3
# Number of atom types:             4
# Total number of atoms:            11
# Atom types:                        H N  Pb Cl
# Number of each atom:               5 2  1 3
# Bandgap, HSE06 (eV):              4.5724
# Bandgap, GGA (eV):                3.5652
# Kpoint for VBM:                   0.5, 0.0455, 0.5
# Kpoint for CBM:                   0.5, 0.0455, 0
# Dielectric constant, electronic:  3.7035
# Dielectric constant, ionic:       10.6798
# Dielectric constant, total:       14.3833
# Refractive index:                 1.9244
# Atomization energy (eV/atom):     -4.1442
# Relative energy1 (eV/atom):       0.335
# Relative energy2 (eV/atom):       0.7443
# Volume of the unit cell (A^3):    162.82
# Density (g/cm^3):                 3.535
# Tool:                             VASP
# Pseudopotential:                  PAW
# Note:                             ENCUT=400eV, k-spacing_relax=0.20/Angstrom, k-spacing_bandgap=0.15/Angstrom
# Created by:                       C.Kim, T.D.Huan, S.Krishnan, R. Ramprasad