data_1
_audit_creation_method   'Generated by vasp2cif'
_cell_length_a    7.49299350703
_cell_length_b    4.04120892833
_cell_length_c    5.93631362074
_cell_angle_alpha    91.2049543903
_cell_angle_beta    95.1097852645
_cell_angle_gamma    71.7366367382

_symmetry_space_group_name_H-M    'P 1'
loop_
_atom_site_label
_atom_site_type_symbol
_atom_site_fract_x
_atom_site_fract_y
_atom_site_fract_z
_atom_site_occupancy
Cl1   Cl   0.721769027049218   0.189703599789413   0.968881603057021   1.0
Cl2   Cl   0.994391292952293   0.527301372663951   0.496456274433199   1.0
Cl3   Cl   0.311480454828633   0.848761202579306   0.048006249185718   1.0
H4   H   0.326960896682433   0.043851814194693   0.527503762806213   1.0
H5   H   0.497632623218217   0.958658139723098   0.734756253985315   1.0
H6   H   0.709442793159548   0.006177765255557   0.476230784630376   1.0
H7   H   0.530519935876824   0.117002751502952   0.275372431624412   1.0
H8   H   0.532778129113113   0.389626539440489   0.496142254273638   1.0
Pb9   Pb   0.016210028769350   0.518142291377545   0.999845094529190   1.0
N10   N   0.468946928824303   0.923440876301524   0.565365179133459   1.0
N11   N   0.565227889526101   0.128033647171531   0.447240112341418   1.0




# HOIP entry ID:                    1090
# Khazana ID:                       2940
# Organic cation source:            B.Saparov et al., Chem. Rev. 116, 4558 (2016)
# Label:                            Hydrazinium Lead Chloride
# Material class:                   Hybrid organic-inorganic perovskite ( MC_ino )
# Geometry class:                   Bulk crystalline materials ( GC_cry )
# Organic cation chemical formula:  NH2NH3
# Number of atom types:             4
# Total number of atoms:            11
# Atom types:                        H N  Pb Cl
# Number of each atom:               5 2  1 3
# Bandgap, HSE06 (eV):              4.0285
# Bandgap, GGA (eV):                3.0945
# Kpoint for VBM:                   0.5, 0.0455, 0.5
# Kpoint for CBM:                   0.1, 0.0455, 0.5
# Dielectric constant, electronic:  3.621
# Dielectric constant, ionic:       10.9435
# Dielectric constant, total:       14.5644
# Refractive index:                 1.9029
# Atomization energy (eV/atom):     -4.1418
# Relative energy1 (eV/atom):       0.3374
# Relative energy2 (eV/atom):       0.7467
# Volume of the unit cell (A^3):    170.02
# Density (g/cm^3):                 3.3853
# Tool:                             VASP
# Pseudopotential:                  PAW
# Note:                             ENCUT=400eV, k-spacing_relax=0.20/Angstrom, k-spacing_bandgap=0.15/Angstrom
# Created by:                       C.Kim, T.D.Huan, S.Krishnan, R. Ramprasad