data_1
_audit_creation_method   'Generated by vasp2cif'
_cell_length_a    5.69128426141
_cell_length_b    5.69149436737
_cell_length_c    5.7031943208
_cell_angle_alpha    83.6452843051
_cell_angle_beta    84.0075399457
_cell_angle_gamma    83.8745341544

_symmetry_space_group_name_H-M    'P 1'
loop_
_atom_site_label
_atom_site_type_symbol
_atom_site_fract_x
_atom_site_fract_y
_atom_site_fract_z
_atom_site_occupancy
Pb1   Pb   0.970839819076012   0.969384674296933   0.026523170437649   1.0
Cl2   Cl   0.027486104934233   0.862041899497378   0.523257243948990   1.0
Cl3   Cl   0.466663153554592   0.030465037833878   0.917859640400160   1.0
Cl4   Cl   0.862042772233181   0.465142656813463   0.085564006999874   1.0
N5   N   0.530975613700818   0.531872182927906   0.584065394194923   1.0
H6   H   0.371679108280240   0.631916632032869   0.552310492770339   1.0
H7   H   0.498216795961476   0.374705482020673   0.687847236824005   1.0
H8   H   0.626304324373429   0.494714059515971   0.424647521585307   1.0
H9   H   0.630112307885987   0.628077375060975   0.672875292838725   1.0




# HOIP entry ID:                    1091
# Khazana ID:                       2941
# Organic cation source:            T.D.Huan et al., Phys. Rev. B 93,094105(2016)
# Label:                            Ammonium Lead Chloride
# Material class:                   Hybrid organic-inorganic perovskite ( MC_ino )
# Geometry class:                   Bulk crystalline materials ( GC_cry )
# Organic cation chemical formula:  NH4
# Number of atom types:             4
# Total number of atoms:            9
# Atom types:                        H N  Pb Cl
# Number of each atom:               4 1  1 3
# Bandgap, HSE06 (eV):              3.7383
# Bandgap, GGA (eV):                2.8234
# Kpoint for VBM:                   0.5, 0.5, 0.5
# Kpoint for CBM:                   0.3684, 0.3684, 0.3684
# Dielectric constant, electronic:  3.3758
# Dielectric constant, ionic:       8.2903
# Dielectric constant, total:       11.6661
# Refractive index:                 1.8373
# Atomization energy (eV/atom):     -3.9479
# Relative energy1 (eV/atom):       0.2875
# Relative energy2 (eV/atom):       0.7878
# Volume of the unit cell (A^3):    181.75
# Density (g/cm^3):                 3.0297
# Tool:                             VASP
# Pseudopotential:                  PAW
# Note:                             ENCUT=400eV, k-spacing_relax=0.20/Angstrom, k-spacing_bandgap=0.15/Angstrom
# Created by:                       C.Kim, T.D.Huan, S.Krishnan, R. Ramprasad