data_1
_audit_creation_method   'Generated by vasp2cif'
_cell_length_a    7.28878514461
_cell_length_b    5.64511322339
_cell_length_c    4.2295442824
_cell_angle_alpha    111.919661967
_cell_angle_beta    106.818928417
_cell_angle_gamma    77.7184255165

_symmetry_space_group_name_H-M    'P 1'
loop_
_atom_site_label
_atom_site_type_symbol
_atom_site_fract_x
_atom_site_fract_y
_atom_site_fract_z
_atom_site_occupancy
Pb1   Pb   0.089024318351356   0.920482189983709   0.170538143033340   1.0
Cl2   Cl   0.405333051687549   0.946673958202481   0.843613857202705   1.0
Cl3   Cl   0.804159313542002   0.069607019218246   0.604445766745449   1.0
Cl4   Cl   0.099632453976462   0.459807669501501   0.447042502843999   1.0
N5   N   0.604699189014241   0.505128423262036   0.223685956357563   1.0
H6   H   0.754105823529187   0.477939584312807   0.287636371932578   1.0
H7   H   0.550950080266972   0.328823597428837   0.102413704607002   1.0
H8   H   0.554851807158869   0.608480999781740   0.448516743050860   1.0
H9   H   0.557983962473401   0.616146558308635   0.061656954226585   1.0




# HOIP entry ID:                    1092
# Khazana ID:                       2942
# Organic cation source:            T.D.Huan et al., Phys. Rev. B 93,094105(2016)
# Label:                            Ammonium Lead Chloride
# Material class:                   Hybrid organic-inorganic perovskite ( MC_ino )
# Geometry class:                   Bulk crystalline materials ( GC_cry )
# Organic cation chemical formula:  NH4
# Number of atom types:             4
# Total number of atoms:            9
# Atom types:                        H N  Pb Cl
# Number of each atom:               4 1  1 3
# Bandgap, HSE06 (eV):              4.7461
# Bandgap, GGA (eV):                3.5122
# Kpoint for VBM:                   0.5, 0.5, 0.1053
# Kpoint for CBM:                   0.5, 0.5, 0
# Dielectric constant, electronic:  3.6969
# Dielectric constant, ionic:       11.3812
# Dielectric constant, total:       15.0781
# Refractive index:                 1.9227
# Atomization energy (eV/atom):     -3.9562
# Relative energy1 (eV/atom):       0.2791
# Relative energy2 (eV/atom):       0.7795
# Volume of the unit cell (A^3):    153.46
# Density (g/cm^3):                 3.5882
# Tool:                             VASP
# Pseudopotential:                  PAW
# Note:                             ENCUT=400eV, k-spacing_relax=0.20/Angstrom, k-spacing_bandgap=0.15/Angstrom
# Created by:                       C.Kim, T.D.Huan, S.Krishnan, R. Ramprasad