data_1
_audit_creation_method   'Generated by vasp2cif'
_cell_length_a    5.8553016241
_cell_length_b    6.05676468569
_cell_length_c    6.3116744996
_cell_angle_alpha    89.5504026347
_cell_angle_beta    90.5358548549
_cell_angle_gamma    100.112102907

_symmetry_space_group_name_H-M    'P 1'
loop_
_atom_site_label
_atom_site_type_symbol
_atom_site_fract_x
_atom_site_fract_y
_atom_site_fract_z
_atom_site_occupancy
C1   C   0.637317731386492   0.321475017377580   0.476142002541885   1.0
C2   C   0.375339392557659   0.534990944727744   0.670504924522076   1.0
C3   C   0.387275593472024   0.550355563365776   0.281359893799904   1.0
H4   H   0.738475171977969   0.318163008166282   0.620718985989674   1.0
H5   H   0.476910289165751   0.516708911650116   0.812199003398849   1.0
H6   H   0.497772239896674   0.545059836189448   0.145008828202972   1.0
H7   H   0.322699931374001   0.707694874543182   0.287463102039461   1.0
H8   H   0.312617080609446   0.693611436454846   0.669363028505819   1.0
H9   H   0.661978123051927   0.666375635164791   0.485527335809406   1.0
H10   H   0.243427234542678   0.409592444648961   0.279932112934004   1.0
H11   H   0.499176299624185   0.175416301276301   0.467404119955696   1.0
H12   H   0.231024144397862   0.395416780059563   0.656033270446749   1.0
H13   H   0.746741949227545   0.332625389035288   0.337135390175753   1.0
Cl14   Cl   0.453913268930756   0.039663846180272   0.971680514214984   1.0
Cl15   Cl   0.918359392717112   0.534199194179772   0.970940871105487   1.0
Cl16   Cl   0.978889120317011   0.946975831603189   0.451556530544586   1.0
N17   N   0.527463400312733   0.529420978515302   0.479723368212338   1.0
Pb18   Pb   0.968769636438196   0.991434006861610   0.994796717600380   1.0




# HOIP entry ID:                    1094
# Khazana ID:                       2944
# Organic cation source:            A. Mancini et al., J. Solid State Chem. 240, 55 (2016)
# Label:                            Trimethylammonium Lead Chloride
# Material class:                   Hybrid organic-inorganic perovskite ( MC_ino )
# Geometry class:                   Bulk crystalline materials ( GC_cry )
# Organic cation chemical formula:  (CH3)3NH
# Number of atom types:             5
# Total number of atoms:            18
# Atom types:                       C H N  Pb Cl
# Number of each atom:              3 10 1  1 3
# Bandgap, HSE06 (eV):              3.509
# Bandgap, GGA (eV):                2.5224
# Kpoint for VBM:                   0.5, 0.5, 0.5
# Kpoint for CBM:                   0.5, 0.5, 0.5
# Dielectric constant, electronic:  3.4249
# Dielectric constant, ionic:       9.5148
# Dielectric constant, total:       12.9397
# Refractive index:                 1.8506
# Atomization energy (eV/atom):     -4.488
# Relative energy1 (eV/atom):       -0.0397
# Relative energy2 (eV/atom):       0.2105
# Volume of the unit cell (A^3):    220.35
# Density (g/cm^3):                 2.8161
# Tool:                             VASP
# Pseudopotential:                  PAW
# Note:                             ENCUT=400eV, k-spacing_relax=0.20/Angstrom, k-spacing_bandgap=0.15/Angstrom
# Created by:                       C.Kim, T.D.Huan, S.Krishnan, R. Ramprasad