data_1
_audit_creation_method   'Generated by vasp2cif'
_cell_length_a    5.9761013341
_cell_length_b    6.02780442241
_cell_length_c    6.13208948391
_cell_angle_alpha    95.7086599785
_cell_angle_beta    86.3956752015
_cell_angle_gamma    84.0396129383

_symmetry_space_group_name_H-M    'P 1'
loop_
_atom_site_label
_atom_site_type_symbol
_atom_site_fract_x
_atom_site_fract_y
_atom_site_fract_z
_atom_site_occupancy
C1   C   0.334855542459167   0.328036872293239   0.474934935301526   1.0
C2   C   0.552487303424812   0.616771161466168   0.322330293758519   1.0
C3   C   0.659648977198557   0.460568272180879   0.666101752281435   1.0
H4   H   0.184159327298104   0.389454415099586   0.398609094565579   1.0
H5   H   0.411711702320929   0.649782826326700   0.222677560178838   1.0
H6   H   0.588240948750880   0.421350838364752   0.823469470289965   1.0
H7   H   0.758277920801149   0.601101754753586   0.686609015758911   1.0
H8   H   0.627440206384584   0.769378101817203   0.371447734210633   1.0
H9   H   0.359713948718088   0.649794357885106   0.616454148372988   1.0
H10   H   0.761339986168444   0.313307891703389   0.580064949126601   1.0
H11   H   0.439998208661244   0.203371170591623   0.361164460359255   1.0
H12   H   0.680416174276402   0.492504079383529   0.233885986340461   1.0
H13   H   0.292137132726935   0.260007316232006   0.626998519981143   1.0
Cl14   Cl   0.490033626581010   0.985987107608196   0.939241207793792   1.0
Cl15   Cl   0.075413006362190   0.521536461608143   0.990847416318928   1.0
Cl16   Cl   0.022423252059163   0.915131909070489   0.531253828791229   1.0
N17   N   0.467935112161889   0.523690262801146   0.527552224843070   1.0
Pb18   Pb   0.011227623646413   0.985695200814249   0.992357401727247   1.0




# HOIP entry ID:                    1095
# Khazana ID:                       2945
# Organic cation source:            A. Mancini et al., J. Solid State Chem. 240, 55 (2016)
# Label:                            Trimethylammonium Lead Chloride
# Material class:                   Hybrid organic-inorganic perovskite ( MC_ino )
# Geometry class:                   Bulk crystalline materials ( GC_cry )
# Organic cation chemical formula:  (CH3)3NH
# Number of atom types:             5
# Total number of atoms:            18
# Atom types:                       C H N  Pb Cl
# Number of each atom:              3 10 1  1 3
# Bandgap, HSE06 (eV):              4.0673
# Bandgap, GGA (eV):                3.0687
# Kpoint for VBM:                   0.5, 0.5, 0.5
# Kpoint for CBM:                   0.4211, 0.5, 0.4211
# Dielectric constant, electronic:  3.4433
# Dielectric constant, ionic:       8.9883
# Dielectric constant, total:       12.4316
# Refractive index:                 1.8556
# Atomization energy (eV/atom):     -4.4879
# Relative energy1 (eV/atom):       -0.0395
# Relative energy2 (eV/atom):       0.2106
# Volume of the unit cell (A^3):    218.01
# Density (g/cm^3):                 2.8463
# Tool:                             VASP
# Pseudopotential:                  PAW
# Note:                             ENCUT=400eV, k-spacing_relax=0.20/Angstrom, k-spacing_bandgap=0.15/Angstrom
# Created by:                       C.Kim, T.D.Huan, S.Krishnan, R. Ramprasad