data_1
_audit_creation_method   'Generated by vasp2cif'
_cell_length_a    5.96001419688
_cell_length_b    6.15428372766
_cell_length_c    6.29302998662
_cell_angle_alpha    79.1790618061
_cell_angle_beta    86.1660613145
_cell_angle_gamma    93.9199897972

_symmetry_space_group_name_H-M    'P 1'
loop_
_atom_site_label
_atom_site_type_symbol
_atom_site_fract_x
_atom_site_fract_y
_atom_site_fract_z
_atom_site_occupancy
C1   C   0.746453449722480   0.494493900119998   0.568383164743423   1.0
C2   C   0.403777224514656   0.693731205368323   0.614539262075517   1.0
C3   C   0.435654757102448   0.462770997725137   0.328978726451318   1.0
H4   H   0.828251862960215   0.604951773175358   0.660544826590339   1.0
H5   H   0.330365933735521   0.550634028503943   0.734202407746309   1.0
H6   H   0.357071049877085   0.318042742157246   0.443749239820811   1.0
H7   H   0.555933279871908   0.411671273398092   0.214236761454899   1.0
H8   H   0.500570419717079   0.806721468387487   0.694788959625967   1.0
H9   H   0.633532521870215   0.748722549681474   0.345669859066469   1.0
H10   H   0.308301917344117   0.555221092171635   0.244153045608947   1.0
H11   H   0.666933206168977   0.345436331144768   0.675910199901175   1.0
H12   H   0.272700710268744   0.778070183952238   0.527491632682420   1.0
H13   H   0.863964330527295   0.451591213139842   0.446585678464601   1.0
Cl14   Cl   0.497294097671642   0.042663148501347   0.021024724030084   1.0
Cl15   Cl   0.967305615199500   0.633071154606142   0.024861223464498   1.0
Cl16   Cl   0.956684536014130   0.036158324082862   0.428437634841124   1.0
N17   N   0.561004438637582   0.611422306842343   0.454729000461953   1.0
Pb18   Pb   0.014250648796434   0.082716307041728   0.989343652970170   1.0




# HOIP entry ID:                    1096
# Khazana ID:                       2946
# Organic cation source:            A. Mancini et al., J. Solid State Chem. 240, 55 (2016)
# Label:                            Trimethylammonium Lead Chloride
# Material class:                   Hybrid organic-inorganic perovskite ( MC_ino )
# Geometry class:                   Bulk crystalline materials ( GC_cry )
# Organic cation chemical formula:  (CH3)3NH
# Number of atom types:             5
# Total number of atoms:            18
# Atom types:                       C H N  Pb Cl
# Number of each atom:              3 10 1  1 3
# Bandgap, HSE06 (eV):              4.3048
# Bandgap, GGA (eV):                3.3046
# Kpoint for VBM:                   0.5, 0.5, 0.5
# Kpoint for CBM:                   0.4211, 0.5, 0.4211
# Dielectric constant, electronic:  3.2653
# Dielectric constant, ionic:       10.4361
# Dielectric constant, total:       13.7014
# Refractive index:                 1.807
# Atomization energy (eV/atom):     -4.4853
# Relative energy1 (eV/atom):       -0.037
# Relative energy2 (eV/atom):       0.2132
# Volume of the unit cell (A^3):    225.44
# Density (g/cm^3):                 2.7525
# Tool:                             VASP
# Pseudopotential:                  PAW
# Note:                             ENCUT=400eV, k-spacing_relax=0.20/Angstrom, k-spacing_bandgap=0.15/Angstrom
# Created by:                       C.Kim, T.D.Huan, S.Krishnan, R. Ramprasad