data_1
_audit_creation_method   'Generated by vasp2cif'
_cell_length_a    6.06319962426
_cell_length_b    6.05461180535
_cell_length_c    5.99905517479
_cell_angle_alpha    94.6486546518
_cell_angle_beta    95.9035071085
_cell_angle_gamma    94.9175279538

_symmetry_space_group_name_H-M    'P 1'
loop_
_atom_site_label
_atom_site_type_symbol
_atom_site_fract_x
_atom_site_fract_y
_atom_site_fract_z
_atom_site_occupancy
C1   C   0.654719205287627   0.625393141602572   0.392455633339075   1.0
C2   C   0.340924260641707   0.757972509773580   0.588733066615838   1.0
C3   C   0.518812144802467   0.424109647954836   0.705812026897775   1.0
H4   H   0.739962733219649   0.478793559456299   0.356521974006078   1.0
H5   H   0.314367273762770   0.858289542548953   0.448561641439490   1.0
H6   H   0.572291315098340   0.267897495407375   0.637480795829170   1.0
H7   H   0.374513031678909   0.395857294493034   0.795706003355740   1.0
H8   H   0.183881994100318   0.698000805815525   0.646054694641244   1.0
H9   H   0.343642125430520   0.459240746182523   0.397419556750336   1.0
H10   H   0.655492941292458   0.519245379643749   0.814506977911051   1.0
H11   H   0.594969685677263   0.695685407717924   0.238613729247255   1.0
H12   H   0.447876691209416   0.852018905340081   0.727832244126319   1.0
H13   H   0.763315517677974   0.750552791204377   0.502754886106665   1.0
Cl14   Cl   0.996908973353236   0.159142384506275   0.525499798043526   1.0
Cl15   Cl   0.059718977893439   0.566695063627634   0.061651539538723   1.0
Cl16   Cl   0.457539292152710   0.105048480489906   0.122354174486034   1.0
N17   N   0.455691280335586   0.558532238741087   0.512013608781565   1.0
Pb18   Pb   0.994182556385631   0.098044605494188   0.053677648884076   1.0




# HOIP entry ID:                    1097
# Khazana ID:                       2947
# Organic cation source:            A. Mancini et al., J. Solid State Chem. 240, 55 (2016)
# Label:                            Trimethylammonium Lead Chloride
# Material class:                   Hybrid organic-inorganic perovskite ( MC_ino )
# Geometry class:                   Bulk crystalline materials ( GC_cry )
# Organic cation chemical formula:  (CH3)3NH
# Number of atom types:             5
# Total number of atoms:            18
# Atom types:                       C H N  Pb Cl
# Number of each atom:              3 10 1  1 3
# Bandgap, HSE06 (eV):              4.1276
# Bandgap, GGA (eV):                3.1798
# Kpoint for VBM:                   0.5, 0.5, 0.5
# Kpoint for CBM:                   0.4167, -0.4167, 0.4286
# Dielectric constant, electronic:  3.4451
# Dielectric constant, ionic:       7.8279
# Dielectric constant, total:       11.273
# Refractive index:                 1.8561
# Atomization energy (eV/atom):     -4.4879
# Relative energy1 (eV/atom):       -0.0396
# Relative energy2 (eV/atom):       0.2106
# Volume of the unit cell (A^3):    217.35
# Density (g/cm^3):                 2.8549
# Tool:                             VASP
# Pseudopotential:                  PAW
# Note:                             ENCUT=400eV, k-spacing_relax=0.20/Angstrom, k-spacing_bandgap=0.15/Angstrom
# Created by:                       C.Kim, T.D.Huan, S.Krishnan, R. Ramprasad