data_1
_audit_creation_method   'Generated by vasp2cif'
_cell_length_a    5.87215667045
_cell_length_b    6.24483485802
_cell_length_c    6.11101843843
_cell_angle_alpha    91.9416195405
_cell_angle_beta    80.0275915284
_cell_angle_gamma    89.0252728251

_symmetry_space_group_name_H-M    'P 1'
loop_
_atom_site_label
_atom_site_type_symbol
_atom_site_fract_x
_atom_site_fract_y
_atom_site_fract_z
_atom_site_occupancy
C1   C   0.356286449934416   0.588033252960550   0.316768760137876   1.0
C2   C   0.619053215762598   0.795066223553562   0.521191010867092   1.0
C3   C   0.577504125758068   0.408468369437983   0.577899017799680   1.0
H4   H   0.265943364749916   0.737050608103715   0.296973753371873   1.0
H5   H   0.768872018781245   0.753332361191617   0.394107271614565   1.0
H6   H   0.457904789379015   0.277306498017879   0.583862703176585   1.0
H7   H   0.635462243003865   0.432909452386383   0.736406630086051   1.0
H8   H   0.531434118201972   0.938496052402492   0.479019307087391   1.0
H9   H   0.317253111559268   0.639901854933733   0.657730274174156   1.0
H10   H   0.725983167706737   0.379340319088719   0.445911927617303   1.0
H11   H   0.498750847268731   0.557621017182996   0.178581737033220   1.0
H12   H   0.669320737104009   0.814108936344169   0.683272748952376   1.0
H13   H   0.239236199230497   0.454317998866316   0.333054804082828   1.0
Cl14   Cl   0.516423897230901   0.085980471554620   0.037587669529678   1.0
Cl15   Cl   0.006712003841855   0.622183252933752   0.945123213886141   1.0
Cl16   Cl   0.066689274555429   0.093519521173953   0.542860613427457   1.0
N17   N   0.455381005254715   0.610800550810765   0.528403659914247   1.0
Pb18   Pb   0.004149430676769   0.085353259056845   0.995884897241510   1.0




# HOIP entry ID:                    1098
# Khazana ID:                       2948
# Organic cation source:            A. Mancini et al., J. Solid State Chem. 240, 55 (2016)
# Label:                            Trimethylammonium Lead Chloride
# Material class:                   Hybrid organic-inorganic perovskite ( MC_ino )
# Geometry class:                   Bulk crystalline materials ( GC_cry )
# Organic cation chemical formula:  (CH3)3NH
# Number of atom types:             5
# Total number of atoms:            18
# Atom types:                       C H N  Pb Cl
# Number of each atom:              3 10 1  1 3
# Bandgap, HSE06 (eV):              3.5936
# Bandgap, GGA (eV):                2.6485
# Kpoint for VBM:                   0.5, 0.5, 0.5
# Kpoint for CBM:                   0.5, 0.5, 0.5
# Dielectric constant, electronic:  3.4223
# Dielectric constant, ionic:       11.3006
# Dielectric constant, total:       14.7229
# Refractive index:                 1.8499
# Atomization energy (eV/atom):     -4.4881
# Relative energy1 (eV/atom):       -0.0398
# Relative energy2 (eV/atom):       0.2103
# Volume of the unit cell (A^3):    220.52
# Density (g/cm^3):                 2.8139
# Tool:                             VASP
# Pseudopotential:                  PAW
# Note:                             ENCUT=400eV, k-spacing_relax=0.20/Angstrom, k-spacing_bandgap=0.15/Angstrom
# Created by:                       C.Kim, T.D.Huan, S.Krishnan, R. Ramprasad