data_1
_audit_creation_method   'Generated by vasp2cif'
_cell_length_a    4.47719659698
_cell_length_b    7.70184357987
_cell_length_c    7.06273931649
_cell_angle_alpha    102.060719213
_cell_angle_beta    75.6751963963
_cell_angle_gamma    87.6282969252

_symmetry_space_group_name_H-M    'P 1'
loop_
_atom_site_label
_atom_site_type_symbol
_atom_site_fract_x
_atom_site_fract_y
_atom_site_fract_z
_atom_site_occupancy
C1   C   0.511971227440547   0.571795118610339   0.359626595671514   1.0
C2   C   0.726724756983351   0.787585264917766   0.596254927891863   1.0
C3   C   0.703941540082766   0.468150699777276   0.624681842683138   1.0
H4   H   0.403913548324255   0.686130450066571   0.324486829959163   1.0
H5   H   0.937234090332993   0.765435321280769   0.474485511823872   1.0
H6   H   0.558363260519592   0.358545787748255   0.614988451405452   1.0
H7   H   0.725332470330272   0.510457882304472   0.777315348329552   1.0
H8   H   0.580665475371788   0.901583923193556   0.590152243759761   1.0
H9   H   0.339717883485726   0.656611114028145   0.674874090084366   1.0
H10   H   0.931126907256491   0.428425120690072   0.519570841159052   1.0
H11   H   0.740653027473599   0.534184616547577   0.255082056474933   1.0
H12   H   0.778411405269722   0.807442071326037   0.741352965340965   1.0
H13   H   0.372358446078628   0.459515181469989   0.349524095527180   1.0
Cl14   Cl   0.439690168614568   0.209896180820067   0.949927978531626   1.0
Cl15   Cl   0.084036352122233   0.721485193603677   0.002600132511851   1.0
Cl16   Cl   0.242682174109149   0.087218813742297   0.450998813333243   1.0
N17   N   0.552855503325688   0.623335656713174   0.569839945049786   1.0
Pb18   Pb   0.905581762878761   0.079781603160086   0.153577330462788   1.0




# HOIP entry ID:                    1099
# Khazana ID:                       2949
# Organic cation source:            A. Mancini et al., J. Solid State Chem. 240, 55 (2016)
# Label:                            Trimethylammonium Lead Chloride
# Material class:                   Hybrid organic-inorganic perovskite ( MC_ino )
# Geometry class:                   Bulk crystalline materials ( GC_cry )
# Organic cation chemical formula:  (CH3)3NH
# Number of atom types:             5
# Total number of atoms:            18
# Atom types:                       C H N  Pb Cl
# Number of each atom:              3 10 1  1 3
# Bandgap, HSE06 (eV):              4.3438
# Bandgap, GGA (eV):                3.3019
# Kpoint for VBM:                   0.3333, -0.2, 0.25
# Kpoint for CBM:                   0, 0, 0.4167
# Dielectric constant, electronic:  3.0407
# Dielectric constant, ionic:       4.3398
# Dielectric constant, total:       7.3806
# Refractive index:                 1.7438
# Atomization energy (eV/atom):     -4.4697
# Relative energy1 (eV/atom):       -0.0214
# Relative energy2 (eV/atom):       0.2287
# Volume of the unit cell (A^3):    229.65
# Density (g/cm^3):                 2.702
# Tool:                             VASP
# Pseudopotential:                  PAW
# Note:                             ENCUT=400eV, k-spacing_relax=0.20/Angstrom, k-spacing_bandgap=0.15/Angstrom
# Created by:                       C.Kim, T.D.Huan, S.Krishnan, R. Ramprasad