data_1
_audit_creation_method   'Generated by vasp2cif'
_cell_length_a    8.8694117123
_cell_length_b    4.45731543671
_cell_length_c    5.74289936711
_cell_angle_alpha    94.3371211455
_cell_angle_beta    93.7933068133
_cell_angle_gamma    93.8855640433

_symmetry_space_group_name_H-M    'P 1'
loop_
_atom_site_label
_atom_site_type_symbol
_atom_site_fract_x
_atom_site_fract_y
_atom_site_fract_z
_atom_site_occupancy
C1   C   0.481504635780232   0.537286832239299   0.785031983723905   1.0
C2   C   0.459934762923327   0.812014176723024   0.425686554459798   1.0
C3   C   0.684662097127955   0.521422721935641   0.494881238337848   1.0
H4   H   0.416596242487022   0.699919371766212   0.878949818790650   1.0
H5   H   0.379997326742288   0.951660129477164   0.509382765659857   1.0
H6   H   0.750943008835073   0.414916393182597   0.627432033771628   1.0
H7   H   0.758032344819188   0.675100776974524   0.406810312633529   1.0
H8   H   0.525110693098398   0.933314683065246   0.304071793444653   1.0
H9   H   0.629213200048784   0.884099049032416   0.706804143734935   1.0
H10   H   0.625726790735623   0.353817557852759   0.367361206699218   1.0
H11   H   0.403619768418657   0.364847598233400   0.689936911923148   1.0
H12   H   0.397919040085436   0.612951812828918   0.334720163951889   1.0
H13   H   0.561945963034563   0.439778411265569   0.903882325458221   1.0
Cl14   Cl   0.075906160408925   0.611827692199839   0.544241802292253   1.0
Cl15   Cl   0.249336308913006   0.133766204686229   0.062400519308563   1.0
Cl16   Cl   0.788783881583437   0.062742177406554   0.015867421206219   1.0
N17   N   0.568359126761457   0.703823868590789   0.610170836290926   1.0
Pb18   Pb   0.033728648196492   0.604120542539752   0.038138168312742   1.0




# HOIP entry ID:                    1100
# Khazana ID:                       2950
# Organic cation source:            A. Mancini et al., J. Solid State Chem. 240, 55 (2016)
# Label:                            Trimethylammonium Lead Chloride
# Material class:                   Hybrid organic-inorganic perovskite ( MC_ino )
# Geometry class:                   Bulk crystalline materials ( GC_cry )
# Organic cation chemical formula:  (CH3)3NH
# Number of atom types:             5
# Total number of atoms:            18
# Atom types:                       C H N  Pb Cl
# Number of each atom:              3 10 1  1 3
# Bandgap, HSE06 (eV):              4.1385
# Bandgap, GGA (eV):                3.1506
# Kpoint for VBM:                   0.5, 0.5, 0.5
# Kpoint for CBM:                   -0.25, 0.0556, 0.3571
# Dielectric constant, electronic:  3.2917
# Dielectric constant, ionic:       15.3879
# Dielectric constant, total:       18.6797
# Refractive index:                 1.8143
# Atomization energy (eV/atom):     -4.482
# Relative energy1 (eV/atom):       -0.0336
# Relative energy2 (eV/atom):       0.2165
# Volume of the unit cell (A^3):    225.29
# Density (g/cm^3):                 2.7543
# Tool:                             VASP
# Pseudopotential:                  PAW
# Note:                             ENCUT=400eV, k-spacing_relax=0.20/Angstrom, k-spacing_bandgap=0.15/Angstrom
# Created by:                       C.Kim, T.D.Huan, S.Krishnan, R. Ramprasad