data_1
_audit_creation_method   'Generated by vasp2cif'
_cell_length_a    5.74109937831
_cell_length_b    4.45498429256
_cell_length_c    8.86937259364
_cell_angle_alpha    93.9031014424
_cell_angle_beta    86.0953634777
_cell_angle_gamma    85.6768834854

_symmetry_space_group_name_H-M    'P 1'
loop_
_atom_site_label
_atom_site_type_symbol
_atom_site_fract_x
_atom_site_fract_y
_atom_site_fract_z
_atom_site_occupancy
C1   C   0.246317391599250   0.525094194511278   0.491065272308980   1.0
C2   C   0.606172299125955   0.799646749591791   0.471517853326437   1.0
C3   C   0.533244830615142   0.508962664399779   0.695820030680608   1.0
H4   H   0.153633303869692   0.687915942129328   0.425681197068294   1.0
H5   H   0.523843180963667   0.939725797796345   0.391306680804028   1.0
H6   H   0.399603537738342   0.401711146447689   0.761050568593994   1.0
H7   H   0.619635785137802   0.662761122576517   0.770122304057963   1.0
H8   H   0.727054272911605   0.920574428822742   0.537461381997227   1.0
H9   H   0.322672127410781   0.871880090542352   0.639487923888882   1.0
H10   H   0.661974613652439   0.341762490877558   0.637496404099867   1.0
H11   H   0.342316994358338   0.352382957986682   0.413563762064913   1.0
H12   H   0.697680889175514   0.600474929308292   0.409669086688193   1.0
H13   H   0.126067475128245   0.427770640802909   0.570924902634503   1.0
Cl14   Cl   0.487265877050159   0.607677818149203   0.086705107568259   1.0
Cl15   Cl   0.967750796749281   0.122629442668992   0.259688005037404   1.0
Cl16   Cl   0.013098101715560   0.050575540785803   0.799025673491879   1.0
N17   N   0.419977779490784   0.691510643409467   0.578970166444122   1.0
Pb18   Pb   0.992210743307364   0.592603399193380   0.044113679244499   1.0




# HOIP entry ID:                    1101
# Khazana ID:                       2951
# Organic cation source:            A. Mancini et al., J. Solid State Chem. 240, 55 (2016)
# Label:                            Trimethylammonium Lead Chloride
# Material class:                   Hybrid organic-inorganic perovskite ( MC_ino )
# Geometry class:                   Bulk crystalline materials ( GC_cry )
# Organic cation chemical formula:  (CH3)3NH
# Number of atom types:             5
# Total number of atoms:            18
# Atom types:                       C H N  Pb Cl
# Number of each atom:              3 10 1  1 3
# Bandgap, HSE06 (eV):              4.1454
# Bandgap, GGA (eV):                3.1574
# Kpoint for VBM:                   0.5, 0.5, 0.5
# Kpoint for CBM:                   0.3571, -0.0556, 0.25
# Dielectric constant, electronic:  3.2929
# Dielectric constant, ionic:       14.7884
# Dielectric constant, total:       18.0814
# Refractive index:                 1.8146
# Atomization energy (eV/atom):     -4.4818
# Relative energy1 (eV/atom):       -0.0335
# Relative energy2 (eV/atom):       0.2166
# Volume of the unit cell (A^3):    225.07
# Density (g/cm^3):                 2.757
# Tool:                             VASP
# Pseudopotential:                  PAW
# Note:                             ENCUT=400eV, k-spacing_relax=0.20/Angstrom, k-spacing_bandgap=0.15/Angstrom
# Created by:                       C.Kim, T.D.Huan, S.Krishnan, R. Ramprasad