data_1
_audit_creation_method   'Generated by vasp2cif'
_cell_length_a    6.30249753943
_cell_length_b    4.6241751519
_cell_length_c    7.86897926627
_cell_angle_alpha    90.6384886836
_cell_angle_beta    93.3633936383
_cell_angle_gamma    74.688384824

_symmetry_space_group_name_H-M    'P 1'
loop_
_atom_site_label
_atom_site_type_symbol
_atom_site_fract_x
_atom_site_fract_y
_atom_site_fract_z
_atom_site_occupancy
C1   C   0.536457922093582   0.869597761427038   0.399956049703143   1.0
C2   C   0.440565326342920   0.908960502141198   0.704672617445453   1.0
C3   C   0.260774158720793   0.621145678500156   0.502330699245000   1.0
H4   H   0.609758993600138   0.055355555948338   0.424343805299053   1.0
H5   H   0.304724940021273   0.937075653430981   0.786841435158877   1.0
H6   H   0.222006767746734   0.590724508710124   0.368138897562481   1.0
H7   H   0.114332842415642   0.660563835442517   0.575504045294515   1.0
H8   H   0.564941397182878   0.699684721745442   0.732624923991281   1.0
H9   H   0.227073314099179   0.071395111570219   0.490438574650689   1.0
H10   H   0.388048812371338   0.430246701895328   0.552760338319530   1.0
H11   H   0.660481890450491   0.657026819658121   0.422846957150846   1.0
H12   H   0.513180427492038   0.097066355934167   0.717184635740530   1.0
H13   H   0.463510650207674   0.880459510387240   0.270403028807479   1.0
Cl14   Cl   0.942649710060493   0.191261603227751   0.255358578230784   1.0
Cl15   Cl   0.897818812453686   0.220006022860197   0.748162809153662   1.0
Cl16   Cl   0.366851401064892   0.465480969202744   0.033453086731960   1.0
N17   N   0.356208723062402   0.886878818581870   0.522190162651945   1.0
Pb18   Pb   0.924303910613951   0.647749869336558   0.010909354862953   1.0




# HOIP entry ID:                    1103
# Khazana ID:                       2953
# Organic cation source:            A. Mancini et al., J. Solid State Chem. 240, 55 (2016)
# Label:                            Trimethylammonium Lead Chloride
# Material class:                   Hybrid organic-inorganic perovskite ( MC_ino )
# Geometry class:                   Bulk crystalline materials ( GC_cry )
# Organic cation chemical formula:  (CH3)3NH
# Number of atom types:             5
# Total number of atoms:            18
# Atom types:                       C H N  Pb Cl
# Number of each atom:              3 10 1  1 3
# Bandgap, HSE06 (eV):              4.7241
# Bandgap, GGA (eV):                3.5996
# Kpoint for VBM:                   0.1667, 0.2778, 0.5
# Kpoint for CBM:                   0.4167, 0, 0.4
# Dielectric constant, electronic:  3.1659
# Dielectric constant, ionic:       5.4443
# Dielectric constant, total:       8.6102
# Refractive index:                 1.7793
# Atomization energy (eV/atom):     -4.4751
# Relative energy1 (eV/atom):       -0.0267
# Relative energy2 (eV/atom):       0.2234
# Volume of the unit cell (A^3):    220.81
# Density (g/cm^3):                 2.8102
# Tool:                             VASP
# Pseudopotential:                  PAW
# Note:                             ENCUT=400eV, k-spacing_relax=0.20/Angstrom, k-spacing_bandgap=0.15/Angstrom
# Created by:                       C.Kim, T.D.Huan, S.Krishnan, R. Ramprasad