data_1
_audit_creation_method   'Generated by vasp2cif'
_cell_length_a    6.02096051236
_cell_length_b    5.8739319053
_cell_length_c    5.95817260663
_cell_angle_alpha    89.9784927783
_cell_angle_beta    89.5241070358
_cell_angle_gamma    89.2097551854

_symmetry_space_group_name_H-M    'P 1'
loop_
_atom_site_label
_atom_site_type_symbol
_atom_site_fract_x
_atom_site_fract_y
_atom_site_fract_z
_atom_site_occupancy
Cl1   Cl   0.008141336147965   0.985299983331558   0.560995314791683   1.0
Cl2   Cl   0.526114719187142   0.060990960980092   0.061045628210635   1.0
Cl3   Cl   0.023051758015754   0.527392978470523   0.060748508844618   1.0
H4   H   0.365579119707185   0.848318290567526   0.566336767192126   1.0
H5   H   0.675408360305731   0.573797698552674   0.290425499294010   1.0
H6   H   0.645242661629503   0.863049590782417   0.559741997319286   1.0
H7   H   0.336153315012993   0.301390882971646   0.564989993898237   1.0
H8   H   0.686113399499597   0.570879353147966   0.822552207004023   1.0
H9   H   0.391584631208310   0.586328357545618   0.865854750565326   1.0
H10   H   0.379393049562594   0.589863662808469   0.264971280555244   1.0
H11   H   0.629846863397596   0.254587597564573   0.556700702385882   1.0
C12   C   0.524514457152627   0.567084606687665   0.743408275913602   1.0
C13   C   0.517356849500558   0.569203706648516   0.379088951910830   1.0
C14   C   0.497787731809737   0.382600677830482   0.560999788807955   1.0
Pb15   Pb   0.009782441193622   0.045897152760844   0.061114390035705   1.0
N16   N   0.511969306669172   0.755364499349447   0.562435943270863   1.0




# HOIP entry ID:                    1104
# Khazana ID:                       2954
# Organic cation source:            B. Zhou et al., Angew. Chem. Int. Ed. 50, 11441 (2011)
# Label:                            Azetidinium Lead Chloride
# Material class:                   Hybrid organic-inorganic perovskite ( MC_ino )
# Geometry class:                   Bulk crystalline materials ( GC_cry )
# Organic cation chemical formula:  C3H6N2
# Number of atom types:             5
# Total number of atoms:            16
# Atom types:                       C H N  Pb Cl
# Number of each atom:              3 8 1  1 3
# Bandgap, HSE06 (eV):              3.4663
# Bandgap, GGA (eV):                2.4437
# Kpoint for VBM:                   0.5, 0.5, 0.5
# Kpoint for CBM:                   0.5, 0.5, 0.5
# Dielectric constant, electronic:  3.6309
# Dielectric constant, ionic:       17.2204
# Dielectric constant, total:       20.8513
# Refractive index:                 1.9055
# Atomization energy (eV/atom):     -4.5651
# Relative energy1 (eV/atom):       -0.0146
# Relative energy2 (eV/atom):       0.2669
# Volume of the unit cell (A^3):    210.69
# Density (g/cm^3):                 2.9293
# Tool:                             VASP
# Pseudopotential:                  PAW
# Note:                             ENCUT=400eV, k-spacing_relax=0.20/Angstrom, k-spacing_bandgap=0.15/Angstrom
# Created by:                       C.Kim, T.D.Huan, S.Krishnan, R. Ramprasad