data_1
_audit_creation_method   'Generated by vasp2cif'
_cell_length_a    5.9715940275
_cell_length_b    5.87056809491
_cell_length_c    5.95634483109
_cell_angle_alpha    93.2281917384
_cell_angle_beta    86.5105830811
_cell_angle_gamma    89.8909667949

_symmetry_space_group_name_H-M    'P 1'
loop_
_atom_site_label
_atom_site_type_symbol
_atom_site_fract_x
_atom_site_fract_y
_atom_site_fract_z
_atom_site_occupancy
Cl1   Cl   0.467281947858147   0.053682342129584   0.968683068966556   1.0
Cl2   Cl   0.972360649355679   0.113573791258418   0.457349587743167   1.0
Cl3   Cl   0.972712018988481   0.600137973945870   0.951163064381234   1.0
H4   H   0.477171528643069   0.898792169159115   0.308957564749463   1.0
H5   H   0.734846159772140   0.683437680851718   0.633055927649153   1.0
H6   H   0.418411438269381   0.908204955560713   0.589692999061491   1.0
H7   H   0.502605526084572   0.284025778436877   0.414882506214561   1.0
H8   H   0.134426212569643   0.630707832396745   0.517403553495008   1.0
H9   H   0.268267228529829   0.569933191888580   0.243138516174582   1.0
H10   H   0.754842304326438   0.612027249911151   0.335785898182486   1.0
H11   H   0.428280636884168   0.405738408091040   0.690729807309054   1.0
C12   C   0.292813662649358   0.600123219400309   0.421626069068061   1.0
C13   C   0.643906140083857   0.631084913021823   0.487228829500374   1.0
C14   C   0.466671050225379   0.441511617954170   0.515069286562827   1.0
Pb15   Pb   0.964611859863410   0.109441076342939   0.964779425633765   1.0
N16   N   0.455741635896487   0.802877799651043   0.448383895308211   1.0




# HOIP entry ID:                    1105
# Khazana ID:                       2955
# Organic cation source:            B. Zhou et al., Angew. Chem. Int. Ed. 50, 11441 (2011)
# Label:                            Azetidinium Lead Chloride
# Material class:                   Hybrid organic-inorganic perovskite ( MC_ino )
# Geometry class:                   Bulk crystalline materials ( GC_cry )
# Organic cation chemical formula:  C3H6N2
# Number of atom types:             5
# Total number of atoms:            16
# Atom types:                       C H N  Pb Cl
# Number of each atom:              3 8 1  1 3
# Bandgap, HSE06 (eV):              3.3068
# Bandgap, GGA (eV):                2.3229
# Kpoint for VBM:                   0.5, 0.5, 0.5
# Kpoint for CBM:                   0.5, 0.5, 0.5
# Dielectric constant, electronic:  3.6923
# Dielectric constant, ionic:       25.698
# Dielectric constant, total:       29.3903
# Refractive index:                 1.9215
# Atomization energy (eV/atom):     -4.5639
# Relative energy1 (eV/atom):       -0.0133
# Relative energy2 (eV/atom):       0.2681
# Volume of the unit cell (A^3):    208.09
# Density (g/cm^3):                 2.9659
# Tool:                             VASP
# Pseudopotential:                  PAW
# Note:                             ENCUT=400eV, k-spacing_relax=0.20/Angstrom, k-spacing_bandgap=0.15/Angstrom
# Created by:                       C.Kim, T.D.Huan, S.Krishnan, R. Ramprasad