data_1
_audit_creation_method   'Generated by vasp2cif'
_cell_length_a    5.93832500323
_cell_length_b    5.97266858686
_cell_length_c    5.89455869391
_cell_angle_alpha    94.0236859561
_cell_angle_beta    91.2100328278
_cell_angle_gamma    95.6960754137

_symmetry_space_group_name_H-M    'P 1'
loop_
_atom_site_label
_atom_site_type_symbol
_atom_site_fract_x
_atom_site_fract_y
_atom_site_fract_z
_atom_site_occupancy
Cl1   Cl   0.475257059577705   0.050545631727669   0.042079121792356   1.0
Cl2   Cl   0.973717165630289   0.034479022358363   0.490010636211621   1.0
Cl3   Cl   0.021920214833194   0.519263180081823   0.995401666993782   1.0
H4   H   0.427599674668463   0.489690773428287   0.177572100961906   1.0
H5   H   0.831165412334955   0.593298668674434   0.463952975078601   1.0
H6   H   0.535486966690976   0.750324792200469   0.265246894897957   1.0
H7   H   0.478293258860004   0.362565141549819   0.756501378165835   1.0
H8   H   0.279007409462780   0.759238147623897   0.559155845340741   1.0
H9   H   0.187001250410894   0.467503663668626   0.486354041829338   1.0
H10   H   0.682727853521146   0.319261663207281   0.400378327858813   1.0
H11   H   0.590076722291562   0.650014079366492   0.801382068046072   1.0
C12   C   0.331836837258733   0.591930756509758   0.522225512333592   1.0
C13   C   0.669340815430958   0.491925702420915   0.463779968933191   1.0
C14   C   0.521504068563136   0.518068206048671   0.674876167307028   1.0
Pb15   Pb   0.985722246743524   0.040788116766902   0.982597704621694   1.0
N16   N   0.490593043721769   0.591082454366724   0.317055589627380   1.0




# HOIP entry ID:                    1106
# Khazana ID:                       2956
# Organic cation source:            B. Zhou et al., Angew. Chem. Int. Ed. 50, 11441 (2011)
# Label:                            Azetidinium Lead Chloride
# Material class:                   Hybrid organic-inorganic perovskite ( MC_ino )
# Geometry class:                   Bulk crystalline materials ( GC_cry )
# Organic cation chemical formula:  C3H6N2
# Number of atom types:             5
# Total number of atoms:            16
# Atom types:                       C H N  Pb Cl
# Number of each atom:              3 8 1  1 3
# Bandgap, HSE06 (eV):              3.5114
# Bandgap, GGA (eV):                2.6221
# Kpoint for VBM:                   0.5, 0.5, 0.5
# Kpoint for CBM:                   0.5, 0.5, 0.5
# Dielectric constant, electronic:  3.6619
# Dielectric constant, ionic:       16.1863
# Dielectric constant, total:       19.8482
# Refractive index:                 1.9136
# Atomization energy (eV/atom):     -4.5615
# Relative energy1 (eV/atom):       -0.011
# Relative energy2 (eV/atom):       0.2704
# Volume of the unit cell (A^3):    207.44
# Density (g/cm^3):                 2.9752
# Tool:                             VASP
# Pseudopotential:                  PAW
# Note:                             ENCUT=400eV, k-spacing_relax=0.20/Angstrom, k-spacing_bandgap=0.15/Angstrom
# Created by:                       C.Kim, T.D.Huan, S.Krishnan, R. Ramprasad