data_1
_audit_creation_method   'Generated by vasp2cif'
_cell_length_a    8.24218013575
_cell_length_b    5.81193723786
_cell_length_c    4.62836566745
_cell_angle_alpha    90.3175832366
_cell_angle_beta    84.2213742989
_cell_angle_gamma    89.8825603294

_symmetry_space_group_name_H-M    'P 1'
loop_
_atom_site_label
_atom_site_type_symbol
_atom_site_fract_x
_atom_site_fract_y
_atom_site_fract_z
_atom_site_occupancy
Cl1   Cl   0.782809301068166   0.659229586236627   0.205474997244067   1.0
Cl2   Cl   0.027349589104460   0.157391937735582   0.694281902002104   1.0
Cl3   Cl   0.259410217306855   0.657218140298559   0.130334871520348   1.0
H4   H   0.602295929963840   0.003676163967932   0.082649482986906   1.0
H5   H   0.321667314221713   0.301439076277457   0.007157025832492   1.0
H6   H   0.323695397226838   0.010267932040515   0.005579004478671   1.0
H7   H   0.383658955228335   0.000979716093044   0.505316093310494   1.0
H8   H   0.378570065965955   0.309661366043139   0.507068520479503   1.0
H9   H   0.675575575604595   0.317403873494749   0.561663688216982   1.0
H10   H   0.681418678445737   0.012804524066732   0.555137728056243   1.0
H11   H   0.599179400545497   0.313745231769800   0.088985705223892   1.0
C12   C   0.428939168801898   0.157024407667638   0.600526437309661   1.0
C13   C   0.568720362747094   0.159090974966462   0.973424491291853   1.0
C14   C   0.613267402126380   0.162312207816460   0.642036491056110   1.0
Pb15   Pb   0.003911882418951   0.657877472007808   0.669246640741617   1.0
N16   N   0.385040759223696   0.156377389517528   0.930166920249073   1.0




# HOIP entry ID:                    1108
# Khazana ID:                       2958
# Organic cation source:            B. Zhou et al., Angew. Chem. Int. Ed. 50, 11441 (2011)
# Label:                            Azetidinium Lead Chloride
# Material class:                   Hybrid organic-inorganic perovskite ( MC_ino )
# Geometry class:                   Bulk crystalline materials ( GC_cry )
# Organic cation chemical formula:  C3H6N2
# Number of atom types:             5
# Total number of atoms:            16
# Atom types:                       C H N  Pb Cl
# Number of each atom:              3 8 1  1 3
# Bandgap, HSE06 (eV):              3.7101
# Bandgap, GGA (eV):                2.4119
# Kpoint for VBM:                   0.5, 0.5, 0.5
# Kpoint for CBM:                   0.5, 0.5, 0
# Dielectric constant, electronic:  3.3044
# Dielectric constant, ionic:       12.7907
# Dielectric constant, total:       16.095
# Refractive index:                 1.8178
# Atomization energy (eV/atom):     -4.553
# Relative energy1 (eV/atom):       -0.0025
# Relative energy2 (eV/atom):       0.279
# Volume of the unit cell (A^3):    220.58
# Density (g/cm^3):                 2.798
# Tool:                             VASP
# Pseudopotential:                  PAW
# Note:                             ENCUT=400eV, k-spacing_relax=0.20/Angstrom, k-spacing_bandgap=0.15/Angstrom
# Created by:                       C.Kim, T.D.Huan, S.Krishnan, R. Ramprasad