data_1
_audit_creation_method   'Generated by vasp2cif'
_cell_length_a    7.96153821049
_cell_length_b    5.82793859672
_cell_length_c    4.61110006966
_cell_angle_alpha    89.4925201876
_cell_angle_beta    96.2177644185
_cell_angle_gamma    85.6120761594

_symmetry_space_group_name_H-M    'P 1'
loop_
_atom_site_label
_atom_site_type_symbol
_atom_site_fract_x
_atom_site_fract_y
_atom_site_fract_z
_atom_site_occupancy
Cl1   Cl   0.752515657443915   0.705835369642962   0.150935181592231   1.0
Cl2   Cl   0.032744079422507   0.173489133154050   0.739657038710384   1.0
Cl3   Cl   0.238326856433986   0.653388514529972   0.241762617298498   1.0
H4   H   0.669784816379021   0.176465966132973   0.135609562327318   1.0
H5   H   0.307918423882207   0.106299412968880   0.952749747861112   1.0
H6   H   0.471521752707957   0.903817225449814   0.020135914382109   1.0
H7   H   0.537920464767240   0.934417098517052   0.540723829357290   1.0
H8   H   0.347393946920839   0.122761756416900   0.470433095015785   1.0
H9   H   0.510897690030575   0.461375323193913   0.601328854310175   1.0
H10   H   0.702481834640672   0.278498664111375   0.628711571521215   1.0
H11   H   0.492550852637791   0.390360953588456   0.123141417039442   1.0
C12   C   0.467315459111624   0.089217949500671   0.606775553866768   1.0
C13   C   0.555794489226152   0.253170814841866   0.009534636440826   1.0
C14   C   0.573098635957770   0.297439819042928   0.684909069821288   1.0
Pb15   Pb   0.996652984606790   0.677485073641385   0.700301998448481   1.0
N16   N   0.433772055831028   0.062956925266860   0.926549912007069   1.0




# HOIP entry ID:                    1110
# Khazana ID:                       2960
# Organic cation source:            B. Zhou et al., Angew. Chem. Int. Ed. 50, 11441 (2011)
# Label:                            Azetidinium Lead Chloride
# Material class:                   Hybrid organic-inorganic perovskite ( MC_ino )
# Geometry class:                   Bulk crystalline materials ( GC_cry )
# Organic cation chemical formula:  C3H6N2
# Number of atom types:             5
# Total number of atoms:            16
# Atom types:                       C H N  Pb Cl
# Number of each atom:              3 8 1  1 3
# Bandgap, HSE06 (eV):              3.9503
# Bandgap, GGA (eV):                2.6985
# Kpoint for VBM:                   0.5, 0.5, 0.5
# Kpoint for CBM:                   0.5, 0.5, 0
# Dielectric constant, electronic:  3.3783
# Dielectric constant, ionic:       12.5824
# Dielectric constant, total:       15.9607
# Refractive index:                 1.838
# Atomization energy (eV/atom):     -4.5555
# Relative energy1 (eV/atom):       -0.005
# Relative energy2 (eV/atom):       0.2765
# Volume of the unit cell (A^3):    212.04
# Density (g/cm^3):                 2.9106
# Tool:                             VASP
# Pseudopotential:                  PAW
# Note:                             ENCUT=400eV, k-spacing_relax=0.20/Angstrom, k-spacing_bandgap=0.15/Angstrom
# Created by:                       C.Kim, T.D.Huan, S.Krishnan, R. Ramprasad