data_1
_audit_creation_method   'Generated by vasp2cif'
_cell_length_a    5.81753542599
_cell_length_b    4.22173268601
_cell_length_c    8.484932417
_cell_angle_alpha    85.4003081689
_cell_angle_beta    90.1948006408
_cell_angle_gamma    91.0880343884

_symmetry_space_group_name_H-M    'P 1'
loop_
_atom_site_label
_atom_site_type_symbol
_atom_site_fract_x
_atom_site_fract_y
_atom_site_fract_z
_atom_site_occupancy
Cl1   Cl   0.836550349541586   0.807213395845831   0.800501335892744   1.0
Cl2   Cl   0.349192454606089   0.139353322837936   0.094768068725729   1.0
Cl3   Cl   0.848858783354529   0.731656880386402   0.288553612305704   1.0
H4   H   0.046201146744654   0.135749710550310   0.488485696867568   1.0
H5   H   0.339865662374876   0.345374672920457   0.317892423274310   1.0
H6   H   0.353994130533938   0.678703625203327   0.407009331040128   1.0
H7   H   0.627555647547008   0.114678297228636   0.481776157583116   1.0
H8   H   0.646169799054184   0.471453114220856   0.581351505620877   1.0
H9   H   0.350887386192181   0.265480991560013   0.772809222240169   1.0
H10   H   0.334560647926672   0.903237620787073   0.683824358704419   1.0
H11   H   0.056977807301020   0.493675943880700   0.587687929931361   1.0
C12   C   0.531439175139156   0.288560560979797   0.541421353814646   1.0
C13   C   0.156844021174151   0.302939753820684   0.545601668935216   1.0
C14   C   0.343174641695046   0.160531597751185   0.659658455044434   1.0
Pb15   Pb   0.846636600686007   0.258175887641424   0.042772033086828   1.0
N16   N   0.345441746128969   0.436694624385232   0.428396846932793   1.0




# HOIP entry ID:                    1111
# Khazana ID:                       2961
# Organic cation source:            B. Zhou et al., Angew. Chem. Int. Ed. 50, 11441 (2011)
# Label:                            Azetidinium Lead Chloride
# Material class:                   Hybrid organic-inorganic perovskite ( MC_ino )
# Geometry class:                   Bulk crystalline materials ( GC_cry )
# Organic cation chemical formula:  C3H6N2
# Number of atom types:             5
# Total number of atoms:            16
# Atom types:                       C H N  Pb Cl
# Number of each atom:              3 8 1  1 3
# Bandgap, HSE06 (eV):              4.6259
# Bandgap, GGA (eV):                3.6137
# Kpoint for VBM:                   0.5, 0.2778, 0.5
# Kpoint for CBM:                   -0.4286, 0, 0.375
# Dielectric constant, electronic:  3.3892
# Dielectric constant, ionic:       6.6097
# Dielectric constant, total:       9.9988
# Refractive index:                 1.841
# Atomization energy (eV/atom):     -4.5561
# Relative energy1 (eV/atom):       -0.0056
# Relative energy2 (eV/atom):       0.2758
# Volume of the unit cell (A^3):    207.68
# Density (g/cm^3):                 2.9718
# Tool:                             VASP
# Pseudopotential:                  PAW
# Note:                             ENCUT=400eV, k-spacing_relax=0.20/Angstrom, k-spacing_bandgap=0.15/Angstrom
# Created by:                       C.Kim, T.D.Huan, S.Krishnan, R. Ramprasad