data_1
_audit_creation_method   'Generated by vasp2cif'
_cell_length_a    8.79855503197
_cell_length_b    4.31519772125
_cell_length_c    5.84974383514
_cell_angle_alpha    79.0145075199
_cell_angle_beta    91.1701586011
_cell_angle_gamma    105.471721336

_symmetry_space_group_name_H-M    'P 1'
loop_
_atom_site_label
_atom_site_type_symbol
_atom_site_fract_x
_atom_site_fract_y
_atom_site_fract_z
_atom_site_occupancy
Cl1   Cl   0.799727191061674   0.742745432341965   0.158193494780373   1.0
Cl2   Cl   0.094903273392617   0.278379616769811   0.552939908954882   1.0
Cl3   Cl   0.272100173106710   0.024117619843941   0.071907035090727   1.0
H4   H   0.531292880423059   0.529177241694539   0.749223927181401   1.0
H5   H   0.327533260695255   0.707388431903527   0.521752442312512   1.0
H6   H   0.334052528328434   0.992421601751495   0.677784227745540   1.0
H7   H   0.560491408945184   0.034601200767380   0.294981939795196   1.0
H8   H   0.523668083602716   0.367606591055051   0.400985553322925   1.0
H9   H   0.694402224955169   0.256098177170778   0.747039835487744   1.0
H10   H   0.761849533228254   0.999380125381727   0.592727556979403   1.0
H11   H   0.490953325630316   0.760923417332388   0.949764392054106   1.0
C12   C   0.543001213372114   0.125862634294314   0.450378712623933   1.0
C13   C   0.523756167001830   0.768605782495496   0.770834176582802   1.0
C14   C   0.657752937342492   0.060748580117540   0.646986348337061   1.0
Pb15   Pb   0.029951998805240   0.379745536661565   0.077121833191461   1.0
N16   N   0.403823800108883   0.880898010418427   0.599798615559831   1.0




# HOIP entry ID:                    1112
# Khazana ID:                       2962
# Organic cation source:            B. Zhou et al., Angew. Chem. Int. Ed. 50, 11441 (2011)
# Label:                            Azetidinium Lead Chloride
# Material class:                   Hybrid organic-inorganic perovskite ( MC_ino )
# Geometry class:                   Bulk crystalline materials ( GC_cry )
# Organic cation chemical formula:  C3H6N2
# Number of atom types:             5
# Total number of atoms:            16
# Atom types:                       C H N  Pb Cl
# Number of each atom:              3 8 1  1 3
# Bandgap, HSE06 (eV):              4.677
# Bandgap, GGA (eV):                3.5887
# Kpoint for VBM:                   -0.25, 0.2, 0.3571
# Kpoint for CBM:                   0.5, 0, 0.3571
# Dielectric constant, electronic:  3.3083
# Dielectric constant, ionic:       5.9948
# Dielectric constant, total:       9.303
# Refractive index:                 1.8189
# Atomization energy (eV/atom):     -4.552
# Relative energy1 (eV/atom):       -0.0015
# Relative energy2 (eV/atom):       0.2799
# Volume of the unit cell (A^3):    210.02
# Density (g/cm^3):                 2.9386
# Tool:                             VASP
# Pseudopotential:                  PAW
# Note:                             ENCUT=400eV, k-spacing_relax=0.20/Angstrom, k-spacing_bandgap=0.15/Angstrom
# Created by:                       C.Kim, T.D.Huan, S.Krishnan, R. Ramprasad