data_1
_audit_creation_method   'Generated by vasp2cif'
_cell_length_a    5.76774417062
_cell_length_b    4.17298422245
_cell_length_c    8.59945878747
_cell_angle_alpha    88.7639066044
_cell_angle_beta    90.3463538083
_cell_angle_gamma    85.5239820497

_symmetry_space_group_name_H-M    'P 1'
loop_
_atom_site_label
_atom_site_type_symbol
_atom_site_fract_x
_atom_site_fract_y
_atom_site_fract_z
_atom_site_occupancy
Cl1   Cl   0.923427121948397   0.802698616309578   0.785279243446759   1.0
Cl2   Cl   0.406885437122996   0.109206536190540   0.062023242109767   1.0
Cl3   Cl   0.918593940255995   0.783821697463320   0.275972882042907   1.0
H4   H   0.212561119182599   0.989696969388845   0.515982312260085   1.0
H5   H   0.427157615986900   0.233350773928727   0.311658987705602   1.0
H6   H   0.310558065128660   0.589940312301556   0.358294867333676   1.0
H7   H   0.726686351784550   0.235362787751525   0.502153765426747   1.0
H8   H   0.642166509614698   0.650958472283275   0.527437341772730   1.0
H9   H   0.362943560142068   0.509076419338796   0.735036826301664   1.0
H10   H   0.487024610270899   0.106551940773042   0.731081957027580   1.0
H11   H   0.069455252233296   0.377508318328592   0.541349754293341   1.0
C12   C   0.583001076743976   0.410516473977295   0.527486362993666   1.0
C13   C   0.236928081175284   0.240803313040428   0.536043387563071   1.0
C14   C   0.420638948579404   0.312076243511334   0.659766660354941   1.0
Pb15   Pb   0.908489017503579   0.279165993456785   0.024969403347609   1.0
N16   N   0.387593292326658   0.378695131956335   0.405953006019669   1.0




# HOIP entry ID:                    1113
# Khazana ID:                       2963
# Organic cation source:            B. Zhou et al., Angew. Chem. Int. Ed. 50, 11441 (2011)
# Label:                            Azetidinium Lead Chloride
# Material class:                   Hybrid organic-inorganic perovskite ( MC_ino )
# Geometry class:                   Bulk crystalline materials ( GC_cry )
# Organic cation chemical formula:  C3H6N2
# Number of atom types:             5
# Total number of atoms:            16
# Atom types:                       C H N  Pb Cl
# Number of each atom:              3 8 1  1 3
# Bandgap, HSE06 (eV):              4.6439
# Bandgap, GGA (eV):                3.6406
# Kpoint for VBM:                   0.5, 0.2, 0.5
# Kpoint for CBM:                   0.5, 0, 0
# Dielectric constant, electronic:  3.3949
# Dielectric constant, ionic:       7.8004
# Dielectric constant, total:       11.1952
# Refractive index:                 1.8425
# Atomization energy (eV/atom):     -4.5524
# Relative energy1 (eV/atom):       -0.0019
# Relative energy2 (eV/atom):       0.2795
# Volume of the unit cell (A^3):    206.29
# Density (g/cm^3):                 2.9918
# Tool:                             VASP
# Pseudopotential:                  PAW
# Note:                             ENCUT=400eV, k-spacing_relax=0.20/Angstrom, k-spacing_bandgap=0.15/Angstrom
# Created by:                       C.Kim, T.D.Huan, S.Krishnan, R. Ramprasad