data_1
_audit_creation_method   'Generated by vasp2cif'
_cell_length_a    4.17462012028
_cell_length_b    5.71624211597
_cell_length_c    8.62312080158
_cell_angle_alpha    91.3637078668
_cell_angle_beta    89.6777505463
_cell_angle_gamma    94.367356945

_symmetry_space_group_name_H-M    'P 1'
loop_
_atom_site_label
_atom_site_type_symbol
_atom_site_fract_x
_atom_site_fract_y
_atom_site_fract_z
_atom_site_occupancy
Cl1   Cl   0.331736284043878   0.624891226879875   0.138636962285034   1.0
Cl2   Cl   0.006380455145710   0.096939580360285   0.890994531549616   1.0
Cl3   Cl   0.327815365547977   0.603510380760383   0.640056496653031   1.0
H4   H   0.822647197418114   0.009077595458187   0.178678808828799   1.0
H5   H   0.983294983320761   0.810129079114049   0.475918068004454   1.0
H6   H   0.632828554720078   0.777666730430703   0.382946679792305   1.0
H7   H   0.445014284387831   0.087089758300507   0.541597770148257   1.0
H8   H   0.838797343101973   0.140760915497786   0.616494923576560   1.0
H9   H   0.977517387082024   0.415090273015686   0.405375052706759   1.0
H10   H   0.599232934926810   0.344995538696551   0.314869762417921   1.0
H11   H   0.193889051837395   0.068610445243443   0.275592304089514   1.0
C12   C   0.697806867892702   0.113273900130501   0.511090796918928   1.0
C13   C   0.934815238694377   0.064686177685161   0.287881341575655   1.0
C14   C   0.797626997539489   0.274428994475365   0.374954159731082   1.0
Pb15   Pb   0.837887073097399   0.595178447571925   0.894171912071144   1.0
N16   N   0.813979981243421   0.898580956379540   0.418860429651012   1.0




# HOIP entry ID:                    1114
# Khazana ID:                       2964
# Organic cation source:            B. Zhou et al., Angew. Chem. Int. Ed. 50, 11441 (2011)
# Label:                            Azetidinium Lead Chloride
# Material class:                   Hybrid organic-inorganic perovskite ( MC_ino )
# Geometry class:                   Bulk crystalline materials ( GC_cry )
# Organic cation chemical formula:  C3H6N2
# Number of atom types:             5
# Total number of atoms:            16
# Atom types:                       C H N  Pb Cl
# Number of each atom:              3 8 1  1 3
# Bandgap, HSE06 (eV):              4.4575
# Bandgap, GGA (eV):                3.305
# Kpoint for VBM:                   0.2632, 0.5, 0.2632
# Kpoint for CBM:                   0, 0.5, 0.5
# Dielectric constant, electronic:  3.4743
# Dielectric constant, ionic:       9.9109
# Dielectric constant, total:       13.3852
# Refractive index:                 1.8639
# Atomization energy (eV/atom):     -4.549
# Relative energy1 (eV/atom):       0.0015
# Relative energy2 (eV/atom):       0.2829
# Volume of the unit cell (A^3):    205.12
# Density (g/cm^3):                 3.0088
# Tool:                             VASP
# Pseudopotential:                  PAW
# Note:                             ENCUT=400eV, k-spacing_relax=0.20/Angstrom, k-spacing_bandgap=0.15/Angstrom
# Created by:                       C.Kim, T.D.Huan, S.Krishnan, R. Ramprasad