data_1
_audit_creation_method   'Generated by vasp2cif'
_cell_length_a    7.99248978596
_cell_length_b    5.93075519909
_cell_length_c    4.60551784514
_cell_angle_alpha    90.162666922
_cell_angle_beta    88.9948412641
_cell_angle_gamma    82.646607621

_symmetry_space_group_name_H-M    'P 1'
loop_
_atom_site_label
_atom_site_type_symbol
_atom_site_fract_x
_atom_site_fract_y
_atom_site_fract_z
_atom_site_occupancy
Cl1   Cl   0.156865622521817   0.518674406241204   0.836319562754433   1.0
Cl2   Cl   0.861962469043563   0.048646016035796   0.843829187472604   1.0
Cl3   Cl   0.646220394633543   0.574227411603921   0.360690538453505   1.0
H4   H   0.442677680838699   0.833685589495686   0.899406141274215   1.0
H5   H   0.416849386379496   0.332784007813480   0.963965165430862   1.0
H6   H   0.598201702980210   0.148743775206440   0.966688545872259   1.0
H7   H   0.555749197308930   0.062381045656239   0.456740773653583   1.0
H8   H   0.397951410153775   0.307791118146902   0.465178988515744   1.0
H9   H   0.178409933054832   0.075399839533197   0.329314947165771   1.0
H10   H   0.323195511831168   0.823637501141999   0.400067045925843   1.0
H11   H   0.263719114926064   0.042677392568020   0.820646695963938   1.0
C12   C   0.440904715424821   0.146050599836398   0.360646357495413   1.0
C13   C   0.362333473243339   0.986216449455805   0.972002920649761   1.0
C14   C   0.306277231229437   0.988201000142116   0.293560317597438   1.0
Pb15   Pb   0.944720068127211   0.729219566938884   0.337686413582646   1.0
N16   N   0.472652088303153   0.176744280184025   0.034936398192194   1.0




# HOIP entry ID:                    1115
# Khazana ID:                       2965
# Organic cation source:            B. Zhou et al., Angew. Chem. Int. Ed. 50, 11441 (2011)
# Label:                            Azetidinium Lead Chloride
# Material class:                   Hybrid organic-inorganic perovskite ( MC_ino )
# Geometry class:                   Bulk crystalline materials ( GC_cry )
# Organic cation chemical formula:  C3H6N2
# Number of atom types:             5
# Total number of atoms:            16
# Atom types:                       C H N  Pb Cl
# Number of each atom:              3 8 1  1 3
# Bandgap, HSE06 (eV):              4.095
# Bandgap, GGA (eV):                3.0468
# Kpoint for VBM:                   0.1, 0.5, 0.5
# Kpoint for CBM:                   0, 0.5, 0
# Dielectric constant, electronic:  3.1584
# Dielectric constant, ionic:       5.858
# Dielectric constant, total:       9.0164
# Refractive index:                 1.7772
# Atomization energy (eV/atom):     -4.5366
# Relative energy1 (eV/atom):       0.0139
# Relative energy2 (eV/atom):       0.2953
# Volume of the unit cell (A^3):    216.48
# Density (g/cm^3):                 2.8509
# Tool:                             VASP
# Pseudopotential:                  PAW
# Note:                             ENCUT=400eV, k-spacing_relax=0.20/Angstrom, k-spacing_bandgap=0.15/Angstrom
# Created by:                       C.Kim, T.D.Huan, S.Krishnan, R. Ramprasad