data_1
_audit_creation_method   'Generated by vasp2cif'
_cell_length_a    8.52095276934
_cell_length_b    5.60146858189
_cell_length_c    4.63939029124
_cell_angle_alpha    93.4932327511
_cell_angle_beta    102.049924853
_cell_angle_gamma    81.7325487933

_symmetry_space_group_name_H-M    'P 1'
loop_
_atom_site_label
_atom_site_type_symbol
_atom_site_fract_x
_atom_site_fract_y
_atom_site_fract_z
_atom_site_occupancy
Cl1   Cl   0.917083380473882   0.208752257574962   0.820287219075945   1.0
Cl2   Cl   0.162293218113193   0.691348029458891   0.367769472422623   1.0
Cl3   Cl   0.638869930649020   0.754530291754361   0.760563960807726   1.0
H4   H   0.290096929754793   0.046965687098065   0.688708408656515   1.0
H5   H   0.482329306197668   0.446367976259963   0.783612275071883   1.0
H6   H   0.558702456960535   0.147699839722387   0.786182862245107   1.0
H7   H   0.626569250079046   0.180011340573449   0.297633469217174   1.0
H8   H   0.488077950591963   0.456711523769295   0.291210571254588   1.0
H9   H   0.269935838176065   0.205425865021128   0.300005561342020   1.0
H10   H   0.395103382978477   0.939814701810984   0.209153999516690   1.0
H11   H   0.219482671386557   0.350263536979414   0.800657801501797   1.0
C12   C   0.506934376651215   0.272527627297360   0.202474079818419   1.0
C13   C   0.311565094323416   0.194815368439772   0.847233427644277   1.0
C14   C   0.360080739740990   0.132110480807663   0.173856236259159   1.0
Pb15   Pb   0.872339277130869   0.545503178243889   0.300941063340002   1.0
N16   N   0.478956196792348   0.280142295188415   0.865059591826169   1.0




# HOIP entry ID:                    1116
# Khazana ID:                       2966
# Organic cation source:            B. Zhou et al., Angew. Chem. Int. Ed. 50, 11441 (2011)
# Label:                            Azetidinium Lead Chloride
# Material class:                   Hybrid organic-inorganic perovskite ( MC_ino )
# Geometry class:                   Bulk crystalline materials ( GC_cry )
# Organic cation chemical formula:  C3H6N2
# Number of atom types:             5
# Total number of atoms:            16
# Atom types:                       C H N  Pb Cl
# Number of each atom:              3 8 1  1 3
# Bandgap, HSE06 (eV):              3.9753
# Bandgap, GGA (eV):                2.8993
# Kpoint for VBM:                   0.3421, 0.3421, 0.3421
# Kpoint for CBM:                   0, 0.5, 0
# Dielectric constant, electronic:  3.2038
# Dielectric constant, ionic:       6.2424
# Dielectric constant, total:       9.4463
# Refractive index:                 1.7899
# Atomization energy (eV/atom):     -4.5264
# Relative energy1 (eV/atom):       0.0241
# Relative energy2 (eV/atom):       0.3055
# Volume of the unit cell (A^3):    214.2
# Density (g/cm^3):                 2.8813
# Tool:                             VASP
# Pseudopotential:                  PAW
# Note:                             ENCUT=400eV, k-spacing_relax=0.20/Angstrom, k-spacing_bandgap=0.15/Angstrom
# Created by:                       C.Kim, T.D.Huan, S.Krishnan, R. Ramprasad