data_1
_audit_creation_method   'Generated by vasp2cif'
_cell_length_a    5.91007026385
_cell_length_b    6.1234636516
_cell_length_c    5.90895254409
_cell_angle_alpha    96.7801578511
_cell_angle_beta    80.6591692971
_cell_angle_gamma    83.5150699985

_symmetry_space_group_name_H-M    'P 1'
loop_
_atom_site_label
_atom_site_type_symbol
_atom_site_fract_x
_atom_site_fract_y
_atom_site_fract_z
_atom_site_occupancy
Cl1   Cl   0.685902307983605   0.750471674772339   0.923904130320016   1.0
Cl2   Cl   0.134653087596037   0.796513593209610   0.358205063889686   1.0
Cl3   Cl   0.135810272647324   0.227910641312948   0.897711376041205   1.0
H4   H   0.396988402842667   0.037861771568641   0.324049796662728   1.0
H5   H   0.649558327778068   0.988394688462863   0.631537879005124   1.0
H6   H   0.781730383331175   0.581015706237679   0.360088912312859   1.0
H7   H   0.459062276144696   0.386447524994107   0.135105671428841   1.0
H8   H   0.873710353378018   0.314976953657548   0.651478707682404   1.0
C9   C   0.545761870939753   0.338095783131036   0.270829325015138   1.0
C10   C   0.640733676327187   0.120883507028169   0.527419087906994   1.0
C11   C   0.702685919134431   0.433627370722141   0.382208300596222   1.0
Pb12   Pb   0.165642372985919   0.757358743054746   0.866747353906507   1.0
N13   N   0.509826330714381   0.145041800524704   0.364783054659884   1.0
N14   N   0.759114418196828   0.294870241323556   0.540671340572486   1.0




# HOIP entry ID:                    1117
# Khazana ID:                       2967
# Organic cation source:            B.Saparov et al., Chem. Rev. 116, 4558 (2016)
# Label:                            Imidazolium Lead Chloride
# Material class:                   Hybrid organic-inorganic perovskite ( MC_ino )
# Geometry class:                   Bulk crystalline materials ( GC_cry )
# Organic cation chemical formula:  C3H5N2
# Number of atom types:             5
# Total number of atoms:            14
# Atom types:                       C H N  Pb Cl
# Number of each atom:              3 5 2  1 3
# Bandgap, HSE06 (eV):              3.7965
# Bandgap, GGA (eV):                2.7953
# Kpoint for VBM:                   -0.3571, 0.1667, 0.2143
# Kpoint for CBM:                   0.4211, 0.5, 0.4211
# Dielectric constant, electronic:  3.6614
# Dielectric constant, ionic:       10.9234
# Dielectric constant, total:       14.5848
# Refractive index:                 1.9135
# Atomization energy (eV/atom):     -5.0298
# Relative energy1 (eV/atom):       0.1893
# Relative energy2 (eV/atom):       0.511
# Volume of the unit cell (A^3):    207.62
# Density (g/cm^3):                 3.0605
# Tool:                             VASP
# Pseudopotential:                  PAW
# Note:                             ENCUT=400eV, k-spacing_relax=0.20/Angstrom, k-spacing_bandgap=0.15/Angstrom
# Created by:                       C.Kim, T.D.Huan, S.Krishnan, R. Ramprasad