data_1
_audit_creation_method   'Generated by vasp2cif'
_cell_length_a    6.06750798257
_cell_length_b    5.95012818424
_cell_length_c    5.92224834298
_cell_angle_alpha    81.3796518277
_cell_angle_beta    83.2564117652
_cell_angle_gamma    96.7877050817

_symmetry_space_group_name_H-M    'P 1'
loop_
_atom_site_label
_atom_site_type_symbol
_atom_site_fract_x
_atom_site_fract_y
_atom_site_fract_z
_atom_site_occupancy
Cl1   Cl   0.414683315366404   0.774012737017486   0.113341109358717   1.0
Cl2   Cl   0.903206199631189   0.742303673410068   0.574407154282705   1.0
Cl3   Cl   0.860404183689667   0.301620339048666   0.116590449168226   1.0
H4   H   0.619746779355885   0.333275594559133   0.855394943855224   1.0
H5   H   0.657420924908392   0.023168825514564   0.604322954538834   1.0
H6   H   0.079838999228260   0.325274884361371   0.461122026908151   1.0
H7   H   0.281620635076441   0.541399965202672   0.786412081836661   1.0
H8   H   0.333834583088403   0.021561470766180   0.372463389171859   1.0
C9   C   0.324275876893407   0.402807557549290   0.700805382173872   1.0
C10   C   0.529681598940630   0.134022956412595   0.610374716741919   1.0
C11   C   0.225688126882773   0.296552478825205   0.541904638645649   1.0
Pb12   Pb   0.894701215246342   0.789238759755316   0.092946023815901   1.0
N13   N   0.511743385961618   0.298030213713584   0.740904510634585   1.0
N14   N   0.357154175730660   0.130590543863894   0.488250618867688   1.0




# HOIP entry ID:                    1118
# Khazana ID:                       2968
# Organic cation source:            B.Saparov et al., Chem. Rev. 116, 4558 (2016)
# Label:                            Imidazolium Lead Chloride
# Material class:                   Hybrid organic-inorganic perovskite ( MC_ino )
# Geometry class:                   Bulk crystalline materials ( GC_cry )
# Organic cation chemical formula:  C3H5N2
# Number of atom types:             5
# Total number of atoms:            14
# Atom types:                       C H N  Pb Cl
# Number of each atom:              3 5 2  1 3
# Bandgap, HSE06 (eV):              3.6158
# Bandgap, GGA (eV):                2.5692
# Kpoint for VBM:                   0.5, 0.5, 0
# Kpoint for CBM:                   0.5, 0.5, 0.5
# Dielectric constant, electronic:  3.6981
# Dielectric constant, ionic:       16.4416
# Dielectric constant, total:       20.1397
# Refractive index:                 1.923
# Atomization energy (eV/atom):     -5.03
# Relative energy1 (eV/atom):       0.189
# Relative energy2 (eV/atom):       0.5107
# Volume of the unit cell (A^3):    207.91
# Density (g/cm^3):                 3.0562
# Tool:                             VASP
# Pseudopotential:                  PAW
# Note:                             ENCUT=400eV, k-spacing_relax=0.20/Angstrom, k-spacing_bandgap=0.15/Angstrom
# Created by:                       C.Kim, T.D.Huan, S.Krishnan, R. Ramprasad