data_1
_audit_creation_method   'Generated by vasp2cif'
_cell_length_a    9.90531536612
_cell_length_b    4.05153894621
_cell_length_c    5.66326720974
_cell_angle_alpha    79.3447042579
_cell_angle_beta    86.8660925246
_cell_angle_gamma    67.8187958832

_symmetry_space_group_name_H-M    'P 1'
loop_
_atom_site_label
_atom_site_type_symbol
_atom_site_fract_x
_atom_site_fract_y
_atom_site_fract_z
_atom_site_occupancy
Cl1   Cl   0.235932285327571   0.641495409800115   0.983953128363510   1.0
Cl2   Cl   0.980384516926577   0.566953343965419   0.515653396084930   1.0
Cl3   Cl   0.766297259396252   0.085467755839572   0.968209710214967   1.0
H4   H   0.725949011853070   0.749636707154359   0.574790079147408   1.0
H5   H   0.365362115544416   0.807171327042236   0.222389134837237   1.0
H6   H   0.262698210509360   0.199303317973650   0.546900681026783   1.0
H7   H   0.507132887052098   0.149617084270514   0.793618557110972   1.0
H8   H   0.643511127908823   0.532151227090033   0.233315788930245   1.0
C9   C   0.377217474754651   0.055215506355640   0.522903734228771   1.0
C10   C   0.497202665377669   0.030786748380011   0.643916521740472   1.0
C11   C   0.574860074494123   0.707629892609108   0.349868430965434   1.0
Pb12   Pb   0.999616624817073   0.343333103891902   0.027449627160086   1.0
N13   N   0.428419254923682   0.852245985241690   0.341373411318538   1.0
N14   N   0.618576491114534   0.814662590385619   0.532287798870768   1.0




# HOIP entry ID:                    1120
# Khazana ID:                       2970
# Organic cation source:            B.Saparov et al., Chem. Rev. 116, 4558 (2016)
# Label:                            Imidazolium Lead Chloride
# Material class:                   Hybrid organic-inorganic perovskite ( MC_ino )
# Geometry class:                   Bulk crystalline materials ( GC_cry )
# Organic cation chemical formula:  C3H5N2
# Number of atom types:             5
# Total number of atoms:            14
# Atom types:                       C H N  Pb Cl
# Number of each atom:              3 5 2  1 3
# Bandgap, HSE06 (eV):              4.6311
# Bandgap, GGA (eV):                3.6492
# Kpoint for VBM:                   -0.375, -0.1818, 0.4286
# Kpoint for CBM:                   0, 0.0455, 0.5
# Dielectric constant, electronic:  3.4708
# Dielectric constant, ionic:       6.4839
# Dielectric constant, total:       9.9547
# Refractive index:                 1.863
# Atomization energy (eV/atom):     -5.0336
# Relative energy1 (eV/atom):       0.1855
# Relative energy2 (eV/atom):       0.5071
# Volume of the unit cell (A^3):    206.8
# Density (g/cm^3):                 3.0726
# Tool:                             VASP
# Pseudopotential:                  PAW
# Note:                             ENCUT=400eV, k-spacing_relax=0.20/Angstrom, k-spacing_bandgap=0.15/Angstrom
# Created by:                       C.Kim, T.D.Huan, S.Krishnan, R. Ramprasad