data_1
_audit_creation_method   'Generated by vasp2cif'
_cell_length_a    9.05427861073
_cell_length_b    4.08369847552
_cell_length_c    5.6860385115
_cell_angle_alpha    100.400080816
_cell_angle_beta    94.0406879319
_cell_angle_gamma    90.4184159714

_symmetry_space_group_name_H-M    'P 1'
loop_
_atom_site_label
_atom_site_type_symbol
_atom_site_fract_x
_atom_site_fract_y
_atom_site_fract_z
_atom_site_occupancy
Cl1   Cl   0.753013627235702   0.105268960540441   0.001800114382492   1.0
Cl2   Cl   0.008396093545037   0.807693391972919   0.484519222166236   1.0
Cl3   Cl   0.227601614810584   0.129049982459866   0.046057928643326   1.0
H4   H   0.270268467530252   0.811117216038706   0.429510767715565   1.0
H5   H   0.601721187503134   0.359396024607585   0.774202487362235   1.0
H6   H   0.726544686879986   0.576306060086350   0.442407044191369   1.0
H7   H   0.503560629937435   0.885242773531001   0.206458936889886   1.0
H8   H   0.325570447433637   0.494149994437266   0.772709253651763   1.0
C9   C   0.610941189856594   0.605970988187751   0.471765151569882   1.0
C10   C   0.501299594679938   0.757709940342208   0.355916619270525   1.0
C11   C   0.402717442329984   0.562613742632602   0.653562786221847   1.0
Pb12   Pb   0.989832557918195   0.602651653168564   0.975582541522795   1.0
N13   N   0.546663714083011   0.485778764749814   0.654952403499810   1.0
N14   N   0.373498746256675   0.729920507245039   0.473784742912302   1.0




# HOIP entry ID:                    1121
# Khazana ID:                       2971
# Organic cation source:            B.Saparov et al., Chem. Rev. 116, 4558 (2016)
# Label:                            Imidazolium Lead Chloride
# Material class:                   Hybrid organic-inorganic perovskite ( MC_ino )
# Geometry class:                   Bulk crystalline materials ( GC_cry )
# Organic cation chemical formula:  C3H5N2
# Number of atom types:             5
# Total number of atoms:            14
# Atom types:                       C H N  Pb Cl
# Number of each atom:              3 5 2  1 3
# Bandgap, HSE06 (eV):              4.649
# Bandgap, GGA (eV):                3.6318
# Kpoint for VBM:                   -0.375, 0.15, 0.4286
# Kpoint for CBM:                   0, 0, 0.5
# Dielectric constant, electronic:  3.4782
# Dielectric constant, ionic:       6.7952
# Dielectric constant, total:       10.2734
# Refractive index:                 1.865
# Atomization energy (eV/atom):     -5.0332
# Relative energy1 (eV/atom):       0.1858
# Relative energy2 (eV/atom):       0.5075
# Volume of the unit cell (A^3):    206.23
# Density (g/cm^3):                 3.0811
# Tool:                             VASP
# Pseudopotential:                  PAW
# Note:                             ENCUT=400eV, k-spacing_relax=0.20/Angstrom, k-spacing_bandgap=0.15/Angstrom
# Created by:                       C.Kim, T.D.Huan, S.Krishnan, R. Ramprasad