data_1
_audit_creation_method   'Generated by vasp2cif'
_cell_length_a    5.80919843779
_cell_length_b    4.09063461647
_cell_length_c    8.98341852228
_cell_angle_alpha    92.163222095
_cell_angle_beta    90.3757732729
_cell_angle_gamma    97.0288361309

_symmetry_space_group_name_H-M    'P 1'
loop_
_atom_site_label
_atom_site_type_symbol
_atom_site_fract_x
_atom_site_fract_y
_atom_site_fract_z
_atom_site_occupancy
Cl1   Cl   0.009253222135699   0.399219229493794   0.251662912805493   1.0
Cl2   Cl   0.527274372303791   0.793256256456854   0.985754193866461   1.0
Cl3   Cl   0.027392956637110   0.357747191469878   0.775999099830978   1.0
H4   H   0.426753126816911   0.003087048575701   0.737868784225980   1.0
H5   H   0.773513664821846   0.701917087516768   0.373146211941801   1.0
H6   H   0.461835251503078   0.018621948975742   0.266042992653776   1.0
H7   H   0.217297816443394   0.217160793717089   0.513488489031569   1.0
H8   H   0.759408416993196   0.689734836834953   0.657167757140849   1.0
C9   C   0.482356485425194   0.983177294610375   0.383181723805762   1.0
C10   C   0.363334955130893   0.080191017181851   0.504475818826481   1.0
C11   C   0.647494482973649   0.807918848565468   0.585845383153051   1.0
Pb12   Pb   0.019868254785080   0.874015643185147   0.012173343332896   1.0
N13   N   0.657611661770688   0.815041374458288   0.436767277213861   1.0
N14   N   0.469855332259483   0.968921428958083   0.628926012171132   1.0




# HOIP entry ID:                    1122
# Khazana ID:                       2972
# Organic cation source:            B.Saparov et al., Chem. Rev. 116, 4558 (2016)
# Label:                            Imidazolium Lead Chloride
# Material class:                   Hybrid organic-inorganic perovskite ( MC_ino )
# Geometry class:                   Bulk crystalline materials ( GC_cry )
# Organic cation chemical formula:  C3H5N2
# Number of atom types:             5
# Total number of atoms:            14
# Atom types:                       C H N  Pb Cl
# Number of each atom:              3 5 2  1 3
# Bandgap, HSE06 (eV):              4.4024
# Bandgap, GGA (eV):                3.4571
# Kpoint for VBM:                   0.5, 0.2, 0.5
# Kpoint for CBM:                   0.5, 0, 0
# Dielectric constant, electronic:  3.418
# Dielectric constant, ionic:       8.4213
# Dielectric constant, total:       11.8394
# Refractive index:                 1.8488
# Atomization energy (eV/atom):     -5.0353
# Relative energy1 (eV/atom):       0.1837
# Relative energy2 (eV/atom):       0.5054
# Volume of the unit cell (A^3):    211.71
# Density (g/cm^3):                 3.0013
# Tool:                             VASP
# Pseudopotential:                  PAW
# Note:                             ENCUT=400eV, k-spacing_relax=0.20/Angstrom, k-spacing_bandgap=0.15/Angstrom
# Created by:                       C.Kim, T.D.Huan, S.Krishnan, R. Ramprasad