data_1
_audit_creation_method   'Generated by vasp2cif'
_cell_length_a    5.83205730776
_cell_length_b    4.11859755182
_cell_length_c    9.5932709251
_cell_angle_alpha    112.347539088
_cell_angle_beta    95.4600678867
_cell_angle_gamma    82.0134925778

_symmetry_space_group_name_H-M    'P 1'
loop_
_atom_site_label
_atom_site_type_symbol
_atom_site_fract_x
_atom_site_fract_y
_atom_site_fract_z
_atom_site_occupancy
Cl1   Cl   0.998332526936238   0.163143860099055   0.750892562564651   1.0
Cl2   Cl   0.478982584698443   0.799209584244736   0.014420324982133   1.0
Cl3   Cl   0.991594235592338   0.581053823283391   0.228880600163947   1.0
H4   H   0.570531233384315   0.185278723309537   0.265860094588994   1.0
H5   H   0.243830956558654   0.392794393148819   0.653011819385064   1.0
H6   H   0.558952104423454   0.814299547844200   0.734417189828328   1.0
H7   H   0.793091481855058   0.662216737158097   0.472293104170426   1.0
H8   H   0.243570796203102   0.019213310978209   0.372249214633598   1.0
C9   C   0.533584874136949   0.629484241373547   0.621113806367596   1.0
C10   C   0.647270055034433   0.555535906466375   0.492600660221520   1.0
C11   C   0.359779234022540   0.213276891875829   0.434126564532249   1.0
Pb12   Pb   0.986602104526746   0.873934568360987   0.992442611397784   1.0
N13   N   0.356383794165858   0.413532065397405   0.581792364271955   1.0
N14   N   0.535424018461924   0.296306346459879   0.377859082891732   1.0




# HOIP entry ID:                    1123
# Khazana ID:                       2973
# Organic cation source:            B.Saparov et al., Chem. Rev. 116, 4558 (2016)
# Label:                            Imidazolium Lead Chloride
# Material class:                   Hybrid organic-inorganic perovskite ( MC_ino )
# Geometry class:                   Bulk crystalline materials ( GC_cry )
# Organic cation chemical formula:  C3H5N2
# Number of atom types:             5
# Total number of atoms:            14
# Atom types:                       C H N  Pb Cl
# Number of each atom:              3 5 2  1 3
# Bandgap, HSE06 (eV):              4.4332
# Bandgap, GGA (eV):                3.4766
# Kpoint for VBM:                   0.5, 0.2, 0.3
# Kpoint for CBM:                   0.5, 0, 0.1
# Dielectric constant, electronic:  3.4261
# Dielectric constant, ionic:       7.2009
# Dielectric constant, total:       10.627
# Refractive index:                 1.851
# Atomization energy (eV/atom):     -5.0347
# Relative energy1 (eV/atom):       0.1843
# Relative energy2 (eV/atom):       0.506
# Volume of the unit cell (A^3):    210.83
# Density (g/cm^3):                 3.0139
# Tool:                             VASP
# Pseudopotential:                  PAW
# Note:                             ENCUT=400eV, k-spacing_relax=0.20/Angstrom, k-spacing_bandgap=0.15/Angstrom
# Created by:                       C.Kim, T.D.Huan, S.Krishnan, R. Ramprasad