data_1
_audit_creation_method   'Generated by vasp2cif'
_cell_length_a    6.14193405016
_cell_length_b    6.07805146311
_cell_length_c    6.28223508398
_cell_angle_alpha    82.4136937067
_cell_angle_beta    88.6293340643
_cell_angle_gamma    93.9667920757

_symmetry_space_group_name_H-M    'P 1'
loop_
_atom_site_label
_atom_site_type_symbol
_atom_site_fract_x
_atom_site_fract_y
_atom_site_fract_z
_atom_site_occupancy
C1   C   0.466221481246362   0.581116790005401   0.337166783746932   1.0
C2   C   0.545981148595193   0.410106976170572   0.202944487343194   1.0
H3   H   0.721370059643397   0.438367365124800   0.164681274993983   1.0
H4   H   0.458883963430176   0.422542147261912   0.053024321261143   1.0
H5   H   0.575696122797787   0.413531598033210   0.629645544861035   1.0
H6   H   0.537565016582337   0.683506074773993   0.640973396221697   1.0
H7   H   0.512695906065810   0.240768715424413   0.286213662459992   1.0
H8   H   0.494393171712590   0.751453326093076   0.256133702836750   1.0
H9   H   0.293726987456801   0.549811462423223   0.384911905575557   1.0
H10   H   0.755925019648378   0.614722978296031   0.511263042915378   1.0
Br11   Br   0.532158404974923   0.020821056583856   0.810380057052954   1.0
Br12   Br   0.068176795272202   0.506350405097200   0.819129508877962   1.0
Br13   Br   0.008002138233818   0.991442624511063   0.350569250329163   1.0
N14   N   0.591649173584187   0.571823500803137   0.543933132706955   1.0
Pb15   Pb   0.032264610756016   0.012224979398100   0.880049928817199   1.0




# HOIP entry ID:                    1124
# Khazana ID:                       2974
# Organic cation source:            B.Saparov et al., Chem. Rev. 116, 4558 (2016)
# Label:                            Ethylammonium Lead Bromide
# Material class:                   Hybrid organic-inorganic perovskite ( MC_ino )
# Geometry class:                   Bulk crystalline materials ( GC_cry )
# Organic cation chemical formula:  CH3CH2NH3
# Number of atom types:             5
# Total number of atoms:            15
# Atom types:                       C H N  Pb Br
# Number of each atom:              2 8 1  1 3
# Bandgap, HSE06 (eV):              3.0532
# Bandgap, GGA (eV):                2.2075
# Kpoint for VBM:                   0.5, 0.5, 0.5
# Kpoint for CBM:                   0.5, 0.5, 0.5
# Dielectric constant, electronic:  4.1098
# Dielectric constant, ionic:       8.8621
# Dielectric constant, total:       12.9719
# Refractive index:                 2.0273
# Atomization energy (eV/atom):     -4.2898
# Relative energy1 (eV/atom):       0.0894
# Relative energy2 (eV/atom):       0.3265
# Volume of the unit cell (A^3):    231.78
# Density (g/cm^3):                 3.5235
# Tool:                             VASP
# Pseudopotential:                  PAW
# Note:                             ENCUT=400eV, k-spacing_relax=0.20/Angstrom, k-spacing_bandgap=0.15/Angstrom
# Created by:                       C.Kim, T.D.Huan, S.Krishnan, R. Ramprasad