data_1
_audit_creation_method   'Generated by vasp2cif'
_cell_length_a    5.99984996142
_cell_length_b    4.27969438019
_cell_length_c    8.99839974631
_cell_angle_alpha    97.1622226149
_cell_angle_beta    90.3526613285
_cell_angle_gamma    91.997917211

_symmetry_space_group_name_H-M    'P 1'
loop_
_atom_site_label
_atom_site_type_symbol
_atom_site_fract_x
_atom_site_fract_y
_atom_site_fract_z
_atom_site_occupancy
C1   C   0.566869003964032   0.739827735015087   0.419236990691529   1.0
C2   C   0.570246248715024   0.561546980749068   0.555129393306887   1.0
H3   H   0.724037290116793   0.432661584763816   0.560265640471048   1.0
H4   H   0.562830625993776   0.729522214061891   0.656380410438451   1.0
H5   H   0.721684879977870   0.386235959889101   0.271127729941216   1.0
H6   H   0.576280611975466   0.631740385809637   0.181235501230771   1.0
H7   H   0.413014482897847   0.867090426055178   0.412505385023406   1.0
H8   H   0.426312144340163   0.397157057527939   0.554664736299144   1.0
H9   H   0.711324017589502   0.902233668461028   0.418509524511393   1.0
H10   H   0.438831899881983   0.359694630179282   0.264927309977911   1.0
Br11   Br   0.561935485909616   0.857026116454704   0.963672096958312   1.0
Br12   Br   0.069444282626579   0.171063958178393   0.214059662473837   1.0
Br13   Br   0.069346365651267   0.063383356556810   0.690316127970697   1.0
N14   N   0.577180637702397   0.513482891692183   0.275685645022416   1.0
Pb15   Pb   0.064202022657690   0.642043034605907   0.930453845682995   1.0




# HOIP entry ID:                    1126
# Khazana ID:                       2976
# Organic cation source:            B.Saparov et al., Chem. Rev. 116, 4558 (2016)
# Label:                            Ethylammonium Lead Bromide
# Material class:                   Hybrid organic-inorganic perovskite ( MC_ino )
# Geometry class:                   Bulk crystalline materials ( GC_cry )
# Organic cation chemical formula:  CH3CH2NH3
# Number of atom types:             5
# Total number of atoms:            15
# Atom types:                       C H N  Pb Br
# Number of each atom:              2 8 1  1 3
# Bandgap, HSE06 (eV):              3.885
# Bandgap, GGA (eV):                2.9235
# Kpoint for VBM:                   0, 0.0556, 0.5
# Kpoint for CBM:                   0.5, 0.0556, 0
# Dielectric constant, electronic:  3.7475
# Dielectric constant, ionic:       7.0512
# Dielectric constant, total:       10.7987
# Refractive index:                 1.9359
# Atomization energy (eV/atom):     -4.2836
# Relative energy1 (eV/atom):       0.0956
# Relative energy2 (eV/atom):       0.3327
# Volume of the unit cell (A^3):    229.1
# Density (g/cm^3):                 3.5647
# Tool:                             VASP
# Pseudopotential:                  PAW
# Note:                             ENCUT=400eV, k-spacing_relax=0.20/Angstrom, k-spacing_bandgap=0.15/Angstrom
# Created by:                       C.Kim, T.D.Huan, S.Krishnan, R. Ramprasad