data_1
_audit_creation_method   'Generated by vasp2cif'
_cell_length_a    8.559929804
_cell_length_b    4.39862713409
_cell_length_c    6.15642652867
_cell_angle_alpha    82.5056414473
_cell_angle_beta    92.7681153766
_cell_angle_gamma    87.8464974319

_symmetry_space_group_name_H-M    'P 1'
loop_
_atom_site_label
_atom_site_type_symbol
_atom_site_fract_x
_atom_site_fract_y
_atom_site_fract_z
_atom_site_occupancy
C1   C   0.467428219401967   0.549124253447090   0.413799361297578   1.0
C2   C   0.409258294950384   0.702261216385594   0.604899966098976   1.0
H3   H   0.385432334655121   0.531569848776151   0.743596112945639   1.0
H4   H   0.495150667857132   0.854699321174316   0.664109888217119   1.0
H5   H   0.630141437026303   0.250970624002520   0.624137307207469   1.0
H6   H   0.714733654854406   0.544026886557219   0.489475570676412   1.0
H7   H   0.389057884668666   0.374350306836547   0.369190478006992   1.0
H8   H   0.300549593674234   0.835666661742053   0.553141796954542   1.0
H9   H   0.481974188939937   0.712130010734448   0.267367012418951   1.0
H10   H   0.659932830933769   0.258667192310042   0.353346170273518   1.0
Br11   Br   0.953529155961370   0.781621669646455   0.535882897241066   1.0
Br12   Br   0.704785946801572   0.116888153486485   0.006259594052821   1.0
Br13   Br   0.226128340686557   0.092358106333073   0.025021332701250   1.0
N14   N   0.627215446959006   0.388656661207214   0.474052590668982   1.0
Pb15   Pb   0.982592002629609   0.615779087360828   0.024569921238658   1.0




# HOIP entry ID:                    1127
# Khazana ID:                       2977
# Organic cation source:            B.Saparov et al., Chem. Rev. 116, 4558 (2016)
# Label:                            Ethylammonium Lead Bromide
# Material class:                   Hybrid organic-inorganic perovskite ( MC_ino )
# Geometry class:                   Bulk crystalline materials ( GC_cry )
# Organic cation chemical formula:  CH3CH2NH3
# Number of atom types:             5
# Total number of atoms:            15
# Atom types:                       C H N  Pb Br
# Number of each atom:              2 8 1  1 3
# Bandgap, HSE06 (eV):              3.9837
# Bandgap, GGA (eV):                3.0253
# Kpoint for VBM:                   0.5, 0.0556, 0.1667
# Kpoint for CBM:                   0, 0.0556, 0.5
# Dielectric constant, electronic:  3.7376
# Dielectric constant, ionic:       6.3675
# Dielectric constant, total:       10.1051
# Refractive index:                 1.9333
# Atomization energy (eV/atom):     -4.2854
# Relative energy1 (eV/atom):       0.0938
# Relative energy2 (eV/atom):       0.3309
# Volume of the unit cell (A^3):    229.33
# Density (g/cm^3):                 3.5612
# Tool:                             VASP
# Pseudopotential:                  PAW
# Note:                             ENCUT=400eV, k-spacing_relax=0.20/Angstrom, k-spacing_bandgap=0.15/Angstrom
# Created by:                       C.Kim, T.D.Huan, S.Krishnan, R. Ramprasad