data_1
_audit_creation_method   'Generated by vasp2cif'
_cell_length_a    6.74489007309
_cell_length_b    4.61424323271
_cell_length_c    7.82801593176
_cell_angle_alpha    107.255486361
_cell_angle_beta    88.6406434066
_cell_angle_gamma    84.951438369

_symmetry_space_group_name_H-M    'P 1'
loop_
_atom_site_label
_atom_site_type_symbol
_atom_site_fract_x
_atom_site_fract_y
_atom_site_fract_z
_atom_site_occupancy
C1   C   0.577289634199939   0.468990023774660   0.489207858270988   1.0
C2   C   0.667912809765624   0.768215132143086   0.563493925508296   1.0
H3   H   0.795994755839449   0.726111431829882   0.638296432364685   1.0
H4   H   0.723789020312833   0.849706565626400   0.455950529521413   1.0
H5   H   0.466499407281217   0.558549106267992   0.254278482420390   1.0
H6   H   0.301588069408031   0.668819614147461   0.429559039750305   1.0
H7   H   0.687678605880346   0.290020457822162   0.409939730490729   1.0
H8   H   0.562774513406803   0.942874351948497   0.654106026668832   1.0
H9   H   0.509302359395202   0.395348030682381   0.594952619833854   1.0
H10   H   0.348325295914614   0.300516279698392   0.314457547983678   1.0
Br11   Br   0.485968363645596   0.804007232178865   0.016071799375114   1.0
Br12   Br   0.974389035944407   0.433104411184992   0.169720753171766   1.0
Br13   Br   0.123860926415801   0.150145385565779   0.618376297007193   1.0
N14   N   0.413147414770219   0.500421054538979   0.364132501832119   1.0
Pb15   Pb   0.073889787819845   0.795250922590590   0.914876455800651   1.0




# HOIP entry ID:                    1129
# Khazana ID:                       2979
# Organic cation source:            B.Saparov et al., Chem. Rev. 116, 4558 (2016)
# Label:                            Ethylammonium Lead Bromide
# Material class:                   Hybrid organic-inorganic perovskite ( MC_ino )
# Geometry class:                   Bulk crystalline materials ( GC_cry )
# Organic cation chemical formula:  CH3CH2NH3
# Number of atom types:             5
# Total number of atoms:            15
# Atom types:                       C H N  Pb Br
# Number of each atom:              2 8 1  1 3
# Bandgap, HSE06 (eV):              3.9125
# Bandgap, GGA (eV):                2.9335
# Kpoint for VBM:                   0.1667, -0.2778, 0.1667
# Kpoint for CBM:                   -0.25, 0, 0.4167
# Dielectric constant, electronic:  3.6214
# Dielectric constant, ionic:       6.8052
# Dielectric constant, total:       10.4265
# Refractive index:                 1.903
# Atomization energy (eV/atom):     -4.2799
# Relative energy1 (eV/atom):       0.0992
# Relative energy2 (eV/atom):       0.3363
# Volume of the unit cell (A^3):    231.44
# Density (g/cm^3):                 3.5287
# Tool:                             VASP
# Pseudopotential:                  PAW
# Note:                             ENCUT=400eV, k-spacing_relax=0.20/Angstrom, k-spacing_bandgap=0.15/Angstrom
# Created by:                       C.Kim, T.D.Huan, S.Krishnan, R. Ramprasad