data_1
_audit_creation_method   'Generated by vasp2cif'
_cell_length_a    6.06170509159
_cell_length_b    4.57169031586
_cell_length_c    8.29080314623
_cell_angle_alpha    86.4833090306
_cell_angle_beta    85.5724560386
_cell_angle_gamma    78.2195857605

_symmetry_space_group_name_H-M    'P 1'
loop_
_atom_site_label
_atom_site_type_symbol
_atom_site_fract_x
_atom_site_fract_y
_atom_site_fract_z
_atom_site_occupancy
C1   C   0.469010933647102   0.524438283162858   0.527080401410464   1.0
C2   C   0.646245471548176   0.716847717522633   0.498581619521470   1.0
H3   H   0.805141971663925   0.589760181739763   0.446465075695100   1.0
H4   H   0.590164305703583   0.906003376288578   0.414536100390249   1.0
H5   H   0.532472896911841   0.360448099968101   0.288567896628778   1.0
H6   H   0.314999972207060   0.647797200719689   0.305222129646117   1.0
H7   H   0.531933979575352   0.312893904351070   0.591760144731746   1.0
H8   H   0.677113322418953   0.801213476587704   0.613306677216853   1.0
H9   H   0.316142535365944   0.640897688463524   0.591567059621435   1.0
H10   H   0.282044064268201   0.310300365688056   0.375698789235591   1.0
Br11   Br   0.541426507067914   0.759057653590116   0.981796355581663   1.0
Br12   Br   0.998534664157300   0.096438057384262   0.231055195021704   1.0
Br13   Br   0.029689686053109   0.141381299555158   0.704250301045563   1.0
N14   N   0.395478653108160   0.452998294422193   0.364078510653517   1.0
Pb15   Pb   0.032541036303392   0.600044400556339   0.953673743599748   1.0




# HOIP entry ID:                    1130
# Khazana ID:                       2980
# Organic cation source:            B.Saparov et al., Chem. Rev. 116, 4558 (2016)
# Label:                            Ethylammonium Lead Bromide
# Material class:                   Hybrid organic-inorganic perovskite ( MC_ino )
# Geometry class:                   Bulk crystalline materials ( GC_cry )
# Organic cation chemical formula:  CH3CH2NH3
# Number of atom types:             5
# Total number of atoms:            15
# Atom types:                       C H N  Pb Br
# Number of each atom:              2 8 1  1 3
# Bandgap, HSE06 (eV):              3.855
# Bandgap, GGA (eV):                2.8605
# Kpoint for VBM:                   0.3333, 0.1667, 0.5
# Kpoint for CBM:                   0.4167, 0, 0.4
# Dielectric constant, electronic:  3.8676
# Dielectric constant, ionic:       7.5938
# Dielectric constant, total:       11.4614
# Refractive index:                 1.9666
# Atomization energy (eV/atom):     -4.2767
# Relative energy1 (eV/atom):       0.1024
# Relative energy2 (eV/atom):       0.3396
# Volume of the unit cell (A^3):    224
# Density (g/cm^3):                 3.6459
# Tool:                             VASP
# Pseudopotential:                  PAW
# Note:                             ENCUT=400eV, k-spacing_relax=0.20/Angstrom, k-spacing_bandgap=0.15/Angstrom
# Created by:                       C.Kim, T.D.Huan, S.Krishnan, R. Ramprasad