data_1
_audit_creation_method   'Generated by vasp2cif'
_cell_length_a    8.93135092533
_cell_length_b    4.22764246908
_cell_length_c    5.82783874042
_cell_angle_alpha    90.5134966051
_cell_angle_beta    89.9871685422
_cell_angle_gamma    92.1966539927

_symmetry_space_group_name_H-M    'P 1'
loop_
_atom_site_label
_atom_site_type_symbol
_atom_site_fract_x
_atom_site_fract_y
_atom_site_fract_z
_atom_site_occupancy
C1   C   0.377574916886465   0.759987597192669   0.411456542026429   1.0
C2   C   0.505874323404382   0.534087389180380   0.412461640421573   1.0
H3   H   0.503403664323174   0.380628942950200   0.260388047740481   1.0
H4   H   0.611264063367392   0.673752603691302   0.410326343155692   1.0
H5   H   0.211289361763670   0.435874531254688   0.272148971107209   1.0
H6   H   0.138431619858810   0.734584026798851   0.416266640086906   1.0
H7   H   0.379418702852404   0.912116748980335   0.563359700347064   1.0
H8   H   0.504708996717190   0.390017845081675   0.567415460416298   1.0
H9   H   0.377570839824431   0.901505468221882   0.256156498903791   1.0
H10   H   0.213547884518391   0.442658134390578   0.560683679012602   1.0
Br11   Br   0.894387164394315   0.205205945981615   0.414583040086679   1.0
Br12   Br   0.166997290676037   0.077501424051506   0.913709170385413   1.0
Br13   Br   0.628135925435286   0.966749659064244   0.912494934515566   1.0
N14   N   0.225684564403825   0.581371563883559   0.415416441564076   1.0
Pb15   Pb   0.869890681574175   0.461298119276524   0.915682890230260   1.0




# HOIP entry ID:                    1131
# Khazana ID:                       2981
# Organic cation source:            B.Saparov et al., Chem. Rev. 116, 4558 (2016)
# Label:                            Ethylammonium Lead Bromide
# Material class:                   Hybrid organic-inorganic perovskite ( MC_ino )
# Geometry class:                   Bulk crystalline materials ( GC_cry )
# Organic cation chemical formula:  CH3CH2NH3
# Number of atom types:             5
# Total number of atoms:            15
# Atom types:                       C H N  Pb Br
# Number of each atom:              2 8 1  1 3
# Bandgap, HSE06 (eV):              3.7646
# Bandgap, GGA (eV):                2.8135
# Kpoint for VBM:                   0.5, 0.0556, 0.0714
# Kpoint for CBM:                   0, 0.5, 0.2143
# Dielectric constant, electronic:  3.898
# Dielectric constant, ionic:       8.9528
# Dielectric constant, total:       12.8508
# Refractive index:                 1.9743
# Atomization energy (eV/atom):     -4.2736
# Relative energy1 (eV/atom):       0.1055
# Relative energy2 (eV/atom):       0.3426
# Volume of the unit cell (A^3):    219.88
# Density (g/cm^3):                 3.7142
# Tool:                             VASP
# Pseudopotential:                  PAW
# Note:                             ENCUT=400eV, k-spacing_relax=0.20/Angstrom, k-spacing_bandgap=0.15/Angstrom
# Created by:                       C.Kim, T.D.Huan, S.Krishnan, R. Ramprasad