data_1
_audit_creation_method   'Generated by vasp2cif'
_cell_length_a    9.58101350373
_cell_length_b    4.58081559078
_cell_length_c    5.66192496969
_cell_angle_alpha    83.6727808486
_cell_angle_beta    99.8653049583
_cell_angle_gamma    111.032513157

_symmetry_space_group_name_H-M    'P 1'
loop_
_atom_site_label
_atom_site_type_symbol
_atom_site_fract_x
_atom_site_fract_y
_atom_site_fract_z
_atom_site_occupancy
C1   C   0.617464784251469   0.685305899672630   0.503831460914392   1.0
C2   C   0.493206510448865   0.580533552651906   0.663162003114443   1.0
H3   H   0.392323054763957   0.399463230935256   0.579446271698165   1.0
H4   H   0.531588680866946   0.488815615640606   0.838799545496516   1.0
H5   H   0.703510544185886   0.324929303416403   0.630155742727210   1.0
H6   H   0.750674919378165   0.482571298187992   0.361222750973509   1.0
H7   H   0.580726213353298   0.770575997445066   0.325357607557438   1.0
H8   H   0.461723908679095   0.780084406501443   0.691455661569445   1.0
H9   H   0.720049069284903   0.861046389019668   0.585885121700292   1.0
H10   H   0.572817494492285   0.242468044932972   0.377636939556762   1.0
Br11   Br   0.043105401748057   0.860241234978387   0.546520611748379   1.0
Br12   Br   0.805623739722193   0.196802875423664   0.024380988581801   1.0
Br13   Br   0.338194789590123   0.982766324493989   0.134738461175884   1.0
N14   N   0.664393423729022   0.414021230402982   0.465295965104991   1.0
Pb15   Pb   0.115287465505793   0.363504596297092   0.916430868080745   1.0




# HOIP entry ID:                    1133
# Khazana ID:                       2983
# Organic cation source:            B.Saparov et al., Chem. Rev. 116, 4558 (2016)
# Label:                            Ethylammonium Lead Bromide
# Material class:                   Hybrid organic-inorganic perovskite ( MC_ino )
# Geometry class:                   Bulk crystalline materials ( GC_cry )
# Organic cation chemical formula:  CH3CH2NH3
# Number of atom types:             5
# Total number of atoms:            15
# Atom types:                       C H N  Pb Br
# Number of each atom:              2 8 1  1 3
# Bandgap, HSE06 (eV):              3.6859
# Bandgap, GGA (eV):                2.6879
# Kpoint for VBM:                   -0.375, -0.3333, 0.2857
# Kpoint for CBM:                   -0.125, 0, 0.4286
# Dielectric constant, electronic:  3.6557
# Dielectric constant, ionic:       5.888
# Dielectric constant, total:       9.5437
# Refractive index:                 1.912
# Atomization energy (eV/atom):     -4.2692
# Relative energy1 (eV/atom):       0.11
# Relative energy2 (eV/atom):       0.3471
# Volume of the unit cell (A^3):    228.19
# Density (g/cm^3):                 3.5789
# Tool:                             VASP
# Pseudopotential:                  PAW
# Note:                             ENCUT=400eV, k-spacing_relax=0.20/Angstrom, k-spacing_bandgap=0.15/Angstrom
# Created by:                       C.Kim, T.D.Huan, S.Krishnan, R. Ramprasad