data_1
_audit_creation_method   'Generated by vasp2cif'
_cell_length_a    6.00424765683
_cell_length_b    6.06167472555
_cell_length_c    7.47855291693
_cell_angle_alpha    101.568628294
_cell_angle_beta    80.7647148011
_cell_angle_gamma    89.5188646808

_symmetry_space_group_name_H-M    'P 1'
loop_
_atom_site_label
_atom_site_type_symbol
_atom_site_fract_x
_atom_site_fract_y
_atom_site_fract_z
_atom_site_occupancy
C1   C   0.412563718775750   0.680235898925510   0.602653628932202   1.0
C2   C   0.324993853056561   0.499457728431693   0.708248837053986   1.0
C3   C   0.440454754952327   0.512102507211694   0.878155878861719   1.0
H4   H   0.395357923299940   0.671179327042225   0.977127379849662   1.0
H5   H   0.390369261190578   0.374400362918301   0.948134175925475   1.0
H6   H   0.359370030301001   0.332869844499214   0.616992933669067   1.0
H7   H   0.140828137537476   0.520711519187898   0.749690821406581   1.0
H8   H   0.320241725116517   0.511585696908980   0.350186288498229   1.0
H9   H   0.360590934537960   0.786807384676159   0.357279913676841   1.0
H10   H   0.624275637303320   0.498677512507726   0.838122212227780   1.0
H11   H   0.378035460588805   0.850390192190318   0.686299932105683   1.0
H12   H   0.593509884999513   0.657340418182017   0.551657679239113   1.0
H13   H   0.127339872354753   0.708574101178939   0.474438235029538   1.0
Br14   Br   0.372305370791246   0.109439068900201   0.215711524794216   1.0
Br15   Br   0.867229748803183   0.597425436257133   0.186964586817702   1.0
Br16   Br   0.886741855516775   0.041588076260403   0.700049063304114   1.0
N17   N   0.298316666872054   0.670402673859691   0.434679586472427   1.0
Pb18   Pb   0.877875164002248   0.088702250861949   0.089357322135719   1.0




# HOIP entry ID:                    1135
# Khazana ID:                       2985
# Organic cation source:            S.Kataoka et al., J. Am. Chem. Soc. 137, 4158 (2015)
# Label:                            Propylammonium Lead Bromide
# Material class:                   Hybrid organic-inorganic perovskite ( MC_ino )
# Geometry class:                   Bulk crystalline materials ( GC_cry )
# Organic cation chemical formula:  CH3CH2CH2NH3
# Number of atom types:             5
# Total number of atoms:            18
# Atom types:                       C H N  Pb Br
# Number of each atom:              3 10 1  1 3
# Bandgap, HSE06 (eV):              3.4422
# Bandgap, GGA (eV):                2.4784
# Kpoint for VBM:                   0.5, 0.5, 0
# Kpoint for CBM:                   0.3947, 0.3947, 0.3947
# Dielectric constant, electronic:  3.5487
# Dielectric constant, ionic:       5.1107
# Dielectric constant, total:       8.6594
# Refractive index:                 1.8838
# Atomization energy (eV/atom):     -4.4152
# Relative energy1 (eV/atom):       0.0258
# Relative energy2 (eV/atom):       0.2234
# Volume of the unit cell (A^3):    262.97
# Density (g/cm^3):                 3.1942
# Tool:                             VASP
# Pseudopotential:                  PAW
# Note:                             ENCUT=400eV, k-spacing_relax=0.20/Angstrom, k-spacing_bandgap=0.15/Angstrom
# Created by:                       C.Kim, T.D.Huan, S.Krishnan, R. Ramprasad