data_1
_audit_creation_method   'Generated by vasp2cif'
_cell_length_a    6.03758933194
_cell_length_b    6.08682643799
_cell_length_c    7.42436614572
_cell_angle_alpha    102.063681636
_cell_angle_beta    80.8583571383
_cell_angle_gamma    90.1970701034

_symmetry_space_group_name_H-M    'P 1'
loop_
_atom_site_label
_atom_site_type_symbol
_atom_site_fract_x
_atom_site_fract_y
_atom_site_fract_z
_atom_site_occupancy
C1   C   0.502658017861528   0.607301455298845   0.618567014557790   1.0
C2   C   0.405826775374173   0.435088008861477   0.729680245371846   1.0
C3   C   0.533859063550750   0.435474451422373   0.892053426526623   1.0
H4   H   0.513637457288269   0.597917371428636   0.990345696611406   1.0
H5   H   0.472969122093474   0.305942547518853   0.967747627031507   1.0
H6   H   0.418942571263216   0.267701285819427   0.637804036243104   1.0
H7   H   0.226394501248734   0.472608913271728   0.781419272813274   1.0
H8   H   0.403126308452549   0.439668421766818   0.365766361660498   1.0
H9   H   0.449429121652713   0.713154771191547   0.372204419840401   1.0
H10   H   0.713161161851140   0.401264575113480   0.841100306766627   1.0
H11   H   0.479908325174591   0.779376259534615   0.700495969573254   1.0
H12   H   0.680814299798598   0.574581955318351   0.564521468751735   1.0
H13   H   0.217250557878153   0.639221831028841   0.492921082597000   1.0
Br14   Br   0.460034243936455   0.036656798209357   0.232469255311621   1.0
Br15   Br   0.957043912195758   0.527174492378791   0.202942237461350   1.0
Br16   Br   0.981293784467397   0.963766086986318   0.721105798188312   1.0
N17   N   0.386108142919468   0.598566141576626   0.450860379934092   1.0
Pb18   Pb   0.965482632993037   0.018804633273881   0.114185400759744   1.0




# HOIP entry ID:                    1136
# Khazana ID:                       2986
# Organic cation source:            S.Kataoka et al., J. Am. Chem. Soc. 137, 4158 (2015)
# Label:                            Propylammonium Lead Bromide
# Material class:                   Hybrid organic-inorganic perovskite ( MC_ino )
# Geometry class:                   Bulk crystalline materials ( GC_cry )
# Organic cation chemical formula:  CH3CH2CH2NH3
# Number of atom types:             5
# Total number of atoms:            18
# Atom types:                       C H N  Pb Br
# Number of each atom:              3 10 1  1 3
# Bandgap, HSE06 (eV):              3.3984
# Bandgap, GGA (eV):                2.4262
# Kpoint for VBM:                   0.5, 0.5, 0
# Kpoint for CBM:                   0.4211, 0.4211, 0.4211
# Dielectric constant, electronic:  3.5693
# Dielectric constant, ionic:       5.493
# Dielectric constant, total:       9.0623
# Refractive index:                 1.8893
# Atomization energy (eV/atom):     -4.4154
# Relative energy1 (eV/atom):       0.0256
# Relative energy2 (eV/atom):       0.2232
# Volume of the unit cell (A^3):    263.3
# Density (g/cm^3):                 3.1902
# Tool:                             VASP
# Pseudopotential:                  PAW
# Note:                             ENCUT=400eV, k-spacing_relax=0.20/Angstrom, k-spacing_bandgap=0.15/Angstrom
# Created by:                       C.Kim, T.D.Huan, S.Krishnan, R. Ramprasad