data_1
_audit_creation_method   'Generated by vasp2cif'
_cell_length_a    6.38671331773
_cell_length_b    6.39283668529
_cell_length_c    6.28395069894
_cell_angle_alpha    78.32290589
_cell_angle_beta    89.6065230881
_cell_angle_gamma    83.9165091619

_symmetry_space_group_name_H-M    'P 1'
loop_
_atom_site_label
_atom_site_type_symbol
_atom_site_fract_x
_atom_site_fract_y
_atom_site_fract_z
_atom_site_occupancy
C1   C   0.589866207103732   0.595354712730391   0.361651302258359   1.0
C2   C   0.619918468390033   0.409312207437793   0.242530398146002   1.0
C3   C   0.416113733924711   0.307577694815379   0.220818117499419   1.0
H4   H   0.289949024450493   0.426228664674277   0.139992521746699   1.0
H5   H   0.442292381697158   0.181298045253527   0.127048927568261   1.0
H6   H   0.742824182556774   0.287439763206287   0.324953400047484   1.0
H7   H   0.681973497514065   0.472652536581656   0.082044089513083   1.0
H8   H   0.584683463697736   0.382269540472549   0.668442706049298   1.0
H9   H   0.344383344832103   0.494132062011452   0.582234649735618   1.0
H10   H   0.357945188756872   0.232442620969472   0.379064342545675   1.0
H11   H   0.737671590992072   0.657844356880503   0.386882425167442   1.0
H12   H   0.477532270484538   0.726621530850544   0.279087168572964   1.0
H13   H   0.512336189583031   0.639995772301873   0.676943208049089   1.0
Br14   Br   0.562428737973370   0.953129573677501   0.804656205879752   1.0
Br15   Br   0.010040878853900   0.394413656295299   0.760905923131311   1.0
Br16   Br   0.053405021856435   0.905174592802098   0.318780399092162   1.0
N17   N   0.500656702612041   0.522012639976921   0.587374430549843   1.0
Pb18   Pb   0.038989114720998   0.930800029062510   0.849969784447715   1.0




# HOIP entry ID:                    1138
# Khazana ID:                       2988
# Organic cation source:            S.Kataoka et al., J. Am. Chem. Soc. 137, 4158 (2015)
# Label:                            Propylammonium Lead Bromide
# Material class:                   Hybrid organic-inorganic perovskite ( MC_ino )
# Geometry class:                   Bulk crystalline materials ( GC_cry )
# Organic cation chemical formula:  CH3CH2CH2NH3
# Number of atom types:             5
# Total number of atoms:            18
# Atom types:                       C H N  Pb Br
# Number of each atom:              3 10 1  1 3
# Bandgap, HSE06 (eV):              3.1474
# Bandgap, GGA (eV):                2.3124
# Kpoint for VBM:                   0.5, 0.5, 0.5
# Kpoint for CBM:                   0.5, 0.5, 0.5
# Dielectric constant, electronic:  3.8989
# Dielectric constant, ionic:       7.6984
# Dielectric constant, total:       11.5973
# Refractive index:                 1.9746
# Atomization energy (eV/atom):     -4.4144
# Relative energy1 (eV/atom):       0.0266
# Relative energy2 (eV/atom):       0.2242
# Volume of the unit cell (A^3):    249.82
# Density (g/cm^3):                 3.3623
# Tool:                             VASP
# Pseudopotential:                  PAW
# Note:                             ENCUT=400eV, k-spacing_relax=0.20/Angstrom, k-spacing_bandgap=0.15/Angstrom
# Created by:                       C.Kim, T.D.Huan, S.Krishnan, R. Ramprasad