data_1
_audit_creation_method   'Generated by vasp2cif'
_cell_length_a    8.14070589064
_cell_length_b    4.46238422846
_cell_length_c    7.53861008483
_cell_angle_alpha    75.7241926315
_cell_angle_beta    84.7510578539
_cell_angle_gamma    75.8958452301

_symmetry_space_group_name_H-M    'P 1'
loop_
_atom_site_label
_atom_site_type_symbol
_atom_site_fract_x
_atom_site_fract_y
_atom_site_fract_z
_atom_site_occupancy
C1   C   0.909923597210891   0.359814716428083   0.378724463602161   1.0
C2   C   0.746472890600060   0.242361265312368   0.426368700441209   1.0
C3   C   0.669742622943218   0.222685019773785   0.251370040691007   1.0
H4   H   0.557655872777161   0.123425494920205   0.288981393062826   1.0
H5   H   0.760526793790255   0.071440187127131   0.175165739673837   1.0
H6   H   0.773383128501756   0.006339409206433   0.519872528585104   1.0
H7   H   0.654742047740875   0.397712204035770   0.499542117578528   1.0
H8   H   0.039291957429889   0.046160790518513   0.610930156526976   1.0
H9   H   0.966767918789223   0.410052364663414   0.641785840108341   1.0
H10   H   0.987643138034997   0.242267068979949   0.279264267091129   1.0
H11   H   0.633822917212832   0.458453750672383   0.159532265212455   1.0
H12   H   0.887182419013989   0.615569554281919   0.323602757750791   1.0
H13   H   0.136314176842369   0.335463015229116   0.503840688988696   1.0
Br14   Br   0.430139826152036   0.936129412941632   0.727443057357576   1.0
Br15   Br   0.954882201291042   0.657314954335789   0.886858503388751   1.0
Br16   Br   0.269607141666896   0.764191566364083   0.292498741719179   1.0
N17   N   0.019578852497673   0.283086520521579   0.543798465843409   1.0
Pb18   Pb   0.309672497504849   0.398752704687759   0.986040272378041   1.0




# HOIP entry ID:                    1139
# Khazana ID:                       2989
# Organic cation source:            S.Kataoka et al., J. Am. Chem. Soc. 137, 4158 (2015)
# Label:                            Propylammonium Lead Bromide
# Material class:                   Hybrid organic-inorganic perovskite ( MC_ino )
# Geometry class:                   Bulk crystalline materials ( GC_cry )
# Organic cation chemical formula:  CH3CH2CH2NH3
# Number of atom types:             5
# Total number of atoms:            18
# Atom types:                       C H N  Pb Br
# Number of each atom:              3 10 1  1 3
# Bandgap, HSE06 (eV):              3.9922
# Bandgap, GGA (eV):                3.0107
# Kpoint for VBM:                   0.3, 0.2778, 0.1667
# Kpoint for CBM:                   0.4, 0, 0.4167
# Dielectric constant, electronic:  3.406
# Dielectric constant, ionic:       4.6992
# Dielectric constant, total:       8.1052
# Refractive index:                 1.8455
# Atomization energy (eV/atom):     -4.4091
# Relative energy1 (eV/atom):       0.0319
# Relative energy2 (eV/atom):       0.2295
# Volume of the unit cell (A^3):    257.25
# Density (g/cm^3):                 3.2652
# Tool:                             VASP
# Pseudopotential:                  PAW
# Note:                             ENCUT=400eV, k-spacing_relax=0.20/Angstrom, k-spacing_bandgap=0.15/Angstrom
# Created by:                       C.Kim, T.D.Huan, S.Krishnan, R. Ramprasad