data_1
_audit_creation_method   'Generated by vasp2cif'
_cell_length_a    7.89000076617
_cell_length_b    4.49895606819
_cell_length_c    8.40083071705
_cell_angle_alpha    85.1884948418
_cell_angle_beta    113.395240378
_cell_angle_gamma    102.862005924

_symmetry_space_group_name_H-M    'P 1'
loop_
_atom_site_label
_atom_site_type_symbol
_atom_site_fract_x
_atom_site_fract_y
_atom_site_fract_z
_atom_site_occupancy
C1   C   0.906183310652402   0.553829249037463   0.392998625295725   1.0
C2   C   0.745837856722183   0.654865639034000   0.417357570196948   1.0
C3   C   0.623463987605433   0.786348131315854   0.245891954127693   1.0
H4   H   0.708345393775545   0.957772759585403   0.191728677559517   1.0
H5   H   0.521568758350313   0.893626883167300   0.265071547684443   1.0
H6   H   0.658978560714338   0.461929832378161   0.456698367327192   1.0
H7   H   0.802446726375415   0.823070905692219   0.522678738396721   1.0
H8   H   0.959513648674360   0.268358088439818   0.616194082351079   1.0
H9   H   0.124638989568524   0.585071148477013   0.645444140355430   1.0
H10   H   0.850837285926147   0.381852279946877   0.290624060160482   1.0
H11   H   0.545463484304115   0.606648178063352   0.147844470256011   1.0
H12   H   0.997951564654521   0.746668084131677   0.360091784567473   1.0
H13   H   0.119207493228572   0.304092285076699   0.524369470818669   1.0
Br14   Br   0.294694433029903   0.975613120724176   0.841959013401329   1.0
Br15   Br   0.781705968232401   0.149796199045994   0.815451336391014   1.0
Br16   Br   0.248696034425265   0.240899300411108   0.306840049210734   1.0
N17   N   0.034464454017183   0.416230896679231   0.554597703833522   1.0
Pb18   Pb   0.052762049743294   0.748577018793625   0.024398408065885   1.0




# HOIP entry ID:                    1140
# Khazana ID:                       2990
# Organic cation source:            S.Kataoka et al., J. Am. Chem. Soc. 137, 4158 (2015)
# Label:                            Propylammonium Lead Bromide
# Material class:                   Hybrid organic-inorganic perovskite ( MC_ino )
# Geometry class:                   Bulk crystalline materials ( GC_cry )
# Organic cation chemical formula:  CH3CH2CH2NH3
# Number of atom types:             5
# Total number of atoms:            18
# Atom types:                       C H N  Pb Br
# Number of each atom:              3 10 1  1 3
# Bandgap, HSE06 (eV):              4.0678
# Bandgap, GGA (eV):                3.0687
# Kpoint for VBM:                   -0.2, -0.2222, 0.4
# Kpoint for CBM:                   0.4, 0, 0
# Dielectric constant, electronic:  3.2626
# Dielectric constant, ionic:       4.4071
# Dielectric constant, total:       7.6697
# Refractive index:                 1.8063
# Atomization energy (eV/atom):     -4.3985
# Relative energy1 (eV/atom):       0.0425
# Relative energy2 (eV/atom):       0.2401
# Volume of the unit cell (A^3):    266.82
# Density (g/cm^3):                 3.1481
# Tool:                             VASP
# Pseudopotential:                  PAW
# Note:                             ENCUT=400eV, k-spacing_relax=0.20/Angstrom, k-spacing_bandgap=0.15/Angstrom
# Created by:                       C.Kim, T.D.Huan, S.Krishnan, R. Ramprasad