data_1
_audit_creation_method   'Generated by vasp2cif'
_cell_length_a    7.39370144211
_cell_length_b    4.38856002733
_cell_length_c    10.1036340866
_cell_angle_alpha    108.022631912
_cell_angle_beta    123.897426748
_cell_angle_gamma    71.4227677305

_symmetry_space_group_name_H-M    'P 1'
loop_
_atom_site_label
_atom_site_type_symbol
_atom_site_fract_x
_atom_site_fract_y
_atom_site_fract_z
_atom_site_occupancy
C1   C   0.090351302572825   0.422076803065796   0.537740237726871   1.0
C2   C   0.292491991708216   0.579674384143182   0.665388257414082   1.0
C3   C   0.447611190236489   0.373207692261514   0.800646768372028   1.0
H4   H   0.359643924703628   0.344052118221598   0.853284590648136   1.0
H5   H   0.588792467717534   0.487118076755007   0.896563133610718   1.0
H6   H   0.379604633890685   0.601694398309922   0.610580520515173   1.0
H7   H   0.239339283747322   0.824231991196465   0.717114236097697   1.0
H8   H   0.920865276967709   0.727149544663403   0.354335920475316   1.0
H9   H   0.854244172052883   0.863270847548174   0.499994143095913   1.0
H10   H   0.126844686746161   0.216625609319660   0.456764912987992   1.0
H11   H   0.511581524981534   0.128689796914946   0.755583073355846   1.0
H12   H   0.027966709310571   0.342688006042120   0.594895791718413   1.0
H13   H   0.755968302548336   0.547469828692814   0.357459997314578   1.0
Br14   Br   0.822017772365223   0.979020328195677   0.133454761732770   1.0
Br15   Br   0.435579517033650   0.335917678915427   0.323830660722003   1.0
Br16   Br   0.928994582865251   0.226205567184097   0.796875165815046   1.0
N17   N   0.894024416394495   0.656967259838489   0.430412101841851   1.0
Pb18   Pb   0.164868244157522   0.787760068731818   0.057765726555636   1.0




# HOIP entry ID:                    1141
# Khazana ID:                       2991
# Organic cation source:            S.Kataoka et al., J. Am. Chem. Soc. 137, 4158 (2015)
# Label:                            Propylammonium Lead Bromide
# Material class:                   Hybrid organic-inorganic perovskite ( MC_ino )
# Geometry class:                   Bulk crystalline materials ( GC_cry )
# Organic cation chemical formula:  CH3CH2CH2NH3
# Number of atom types:             5
# Total number of atoms:            18
# Atom types:                       C H N  Pb Br
# Number of each atom:              3 10 1  1 3
# Bandgap, HSE06 (eV):              4.0813
# Bandgap, GGA (eV):                3.0752
# Kpoint for VBM:                   0.0833, 0.15, 0.4
# Kpoint for CBM:                   0.3333, 0, 0.1
# Dielectric constant, electronic:  3.47
# Dielectric constant, ionic:       5.5012
# Dielectric constant, total:       8.9712
# Refractive index:                 1.8628
# Atomization energy (eV/atom):     -4.4071
# Relative energy1 (eV/atom):       0.0339
# Relative energy2 (eV/atom):       0.2316
# Volume of the unit cell (A^3):    254.3
# Density (g/cm^3):                 3.3031
# Tool:                             VASP
# Pseudopotential:                  PAW
# Note:                             ENCUT=400eV, k-spacing_relax=0.20/Angstrom, k-spacing_bandgap=0.15/Angstrom
# Created by:                       C.Kim, T.D.Huan, S.Krishnan, R. Ramprasad