data_1
_audit_creation_method   'Generated by vasp2cif'
_cell_length_a    11.4142956701
_cell_length_b    4.40323759419
_cell_length_c    6.2336915553
_cell_angle_alpha    94.8611344728
_cell_angle_beta    58.9007670445
_cell_angle_gamma    108.793977897

_symmetry_space_group_name_H-M    'P 1'
loop_
_atom_site_label
_atom_site_type_symbol
_atom_site_fract_x
_atom_site_fract_y
_atom_site_fract_z
_atom_site_occupancy
C1   C   0.580378754685353   0.699716685236508   0.002844544246309   1.0
C2   C   0.641785262733169   0.869935264290570   0.745176538159581   1.0
C3   C   0.784644929597290   0.145489436049171   0.663598844189579   1.0
H4   H   0.777585072549316   0.294760228826802   0.816845854061583   1.0
H5   H   0.813494981983165   0.301041297003060   0.504369954712255   1.0
H6   H   0.659857297594272   0.695341094264676   0.604539478443289   1.0
H7   H   0.561261394668347   0.959683468594066   0.749978807228435   1.0
H8   H   0.446194851483632   0.291831657003902   0.932335239526744   1.0
H9   H   0.354312450313867   0.514537733847262   0.134988517612956   1.0
H10   H   0.654705594108050   0.594568714381806   0.002806033971489   1.0
H11   H   0.873188139379413   0.050596521963533   0.605570502859898   1.0
H12   H   0.555506761601955   0.860945838025641   0.152421999129701   1.0
H13   H   0.410391461413908   0.279438502548827   0.231647518194519   1.0
Br14   Br   0.154543481883258   0.680540554185207   0.306730492679682   1.0
Br15   Br   0.383364034719489   0.157545058615658   0.612082491536006   1.0
Br16   Br   0.900638738712134   0.825689584329880   0.063127880492653   1.0
N17   N   0.439868243064247   0.427456982624359   0.079202949749949   1.0
Pb18   Pb   0.124348549509100   0.505671378209192   0.851662353205338   1.0




# HOIP entry ID:                    1142
# Khazana ID:                       2992
# Organic cation source:            S.Kataoka et al., J. Am. Chem. Soc. 137, 4158 (2015)
# Label:                            Propylammonium Lead Bromide
# Material class:                   Hybrid organic-inorganic perovskite ( MC_ino )
# Geometry class:                   Bulk crystalline materials ( GC_cry )
# Organic cation chemical formula:  CH3CH2CH2NH3
# Number of atom types:             5
# Total number of atoms:            18
# Atom types:                       C H N  Pb Br
# Number of each atom:              3 10 1  1 3
# Bandgap, HSE06 (eV):              4.023
# Bandgap, GGA (eV):                3.061
# Kpoint for VBM:                   -0.3333, 0, 0.1875
# Kpoint for CBM:                   0.5, 0.0556, 0.5
# Dielectric constant, electronic:  3.5902
# Dielectric constant, ionic:       6.3098
# Dielectric constant, total:       9.9
# Refractive index:                 1.8948
# Atomization energy (eV/atom):     -4.4169
# Relative energy1 (eV/atom):       0.0241
# Relative energy2 (eV/atom):       0.2217
# Volume of the unit cell (A^3):    252.68
# Density (g/cm^3):                 3.3243
# Tool:                             VASP
# Pseudopotential:                  PAW
# Note:                             ENCUT=400eV, k-spacing_relax=0.20/Angstrom, k-spacing_bandgap=0.15/Angstrom
# Created by:                       C.Kim, T.D.Huan, S.Krishnan, R. Ramprasad