data_1
_audit_creation_method   'Generated by vasp2cif'
_cell_length_a    8.06032400091
_cell_length_b    4.57779315122
_cell_length_c    8.45653505038
_cell_angle_alpha    95.717406424
_cell_angle_beta    116.652636843
_cell_angle_gamma    71.3800125042

_symmetry_space_group_name_H-M    'P 1'
loop_
_atom_site_label
_atom_site_type_symbol
_atom_site_fract_x
_atom_site_fract_y
_atom_site_fract_z
_atom_site_occupancy
C1   C   0.156903292323427   0.446063725307771   0.655975534986811   1.0
C2   C   0.303774840421602   0.559061816572283   0.633187539504306   1.0
C3   C   0.434900591816372   0.662060838662705   0.811566909885385   1.0
H4   H   0.532879299733128   0.464239259248091   0.905127952717942   1.0
H5   H   0.349761625939387   0.819678005059784   0.873965981882130   1.0
H6   H   0.392972452663848   0.376932285711962   0.584279202451102   1.0
H7   H   0.226450691772799   0.749575857443443   0.532342490107065   1.0
H8   H   0.084185963169724   0.208831598064040   0.416318142001590   1.0
H9   H   0.919272183944166   0.550078028929771   0.397812550839999   1.0
H10   H   0.229283646234050   0.244634512003291   0.747878237410260   1.0
H11   H   0.524165699389832   0.779852590519453   0.793496807965277   1.0
H12   H   0.067566734256497   0.628641173581843   0.703537222995973   1.0
H13   H   0.928967157869042   0.254302698039907   0.506675523360278   1.0
Br14   Br   0.750007245310461   0.954864088119288   0.183997203571306   1.0
Br15   Br   0.282712124249381   0.019461969552048   0.245405922191557   1.0
Br16   Br   0.818286875185681   0.171444914690334   0.727771172975253   1.0
N17   N   0.013754626067229   0.357162391491540   0.483522555905721   1.0
Pb18   Pb   0.005754949653404   0.669634247002571   0.021489049248039   1.0




# HOIP entry ID:                    1143
# Khazana ID:                       2993
# Organic cation source:            S.Kataoka et al., J. Am. Chem. Soc. 137, 4158 (2015)
# Label:                            Propylammonium Lead Bromide
# Material class:                   Hybrid organic-inorganic perovskite ( MC_ino )
# Geometry class:                   Bulk crystalline materials ( GC_cry )
# Organic cation chemical formula:  CH3CH2CH2NH3
# Number of atom types:             5
# Total number of atoms:            18
# Atom types:                       C H N  Pb Br
# Number of each atom:              3 10 1  1 3
# Bandgap, HSE06 (eV):              4.0169
# Bandgap, GGA (eV):                3.01
# Kpoint for VBM:                   -0.2, 0.2222, 0.4167
# Kpoint for CBM:                   0.4, 0, 0.0833
# Dielectric constant, electronic:  3.3045
# Dielectric constant, ionic:       5.5522
# Dielectric constant, total:       8.8567
# Refractive index:                 1.8178
# Atomization energy (eV/atom):     -4.3986
# Relative energy1 (eV/atom):       0.0424
# Relative energy2 (eV/atom):       0.24
# Volume of the unit cell (A^3):    263.93
# Density (g/cm^3):                 3.1826
# Tool:                             VASP
# Pseudopotential:                  PAW
# Note:                             ENCUT=400eV, k-spacing_relax=0.20/Angstrom, k-spacing_bandgap=0.15/Angstrom
# Created by:                       C.Kim, T.D.Huan, S.Krishnan, R. Ramprasad