data_1
_audit_creation_method   'Generated by vasp2cif'
_cell_length_a    6.01930138673
_cell_length_b    6.0263480973
_cell_length_c    9.79820427976
_cell_angle_alpha    61.7459980655
_cell_angle_beta    123.408505283
_cell_angle_gamma    95.5392205008

_symmetry_space_group_name_H-M    'P 1'
loop_
_atom_site_label
_atom_site_type_symbol
_atom_site_fract_x
_atom_site_fract_y
_atom_site_fract_z
_atom_site_occupancy
C1   C   0.888581979871866   0.592644094354377   0.384885965945898   1.0
C2   C   0.708129685648537   0.781032054727554   0.366292483065443   1.0
C3   C   0.544732449586924   0.009474472193794   0.162775562943928   1.0
H4   H   0.682565798047804   0.104346556276184   0.125424265560532   1.0
H5   H   0.421016059514805   0.149834669506049   0.148171155657984   1.0
H6   H   0.571538474395410   0.682378367936394   0.404536863699448   1.0
H7   H   0.835522582464847   0.850959042557790   0.464521763046584   1.0
H8   H   0.958654856130124   0.278844814249766   0.639586649748203   1.0
H9   H   0.205590351754921   0.439102568472649   0.676135377859374   1.0
H10   H   0.767538675780848   0.505184404745108   0.298491130538323   1.0
H11   H   0.409928476068153   0.947164987574482   0.061127743434028   1.0
H12   H   0.024368442221615   0.687161625946828   0.345050060263461   1.0
H13   H   0.184845852921654   0.237875678477494   0.598352230095870   1.0
Br14   Br   0.322085048951394   0.702488405620343   0.840199362486246   1.0
Br15   Br   0.779837394485128   0.210629731478321   0.831243051161053   1.0
Br16   Br   0.272269513303996   0.228682813489058   0.352288377038285   1.0
N17   N   0.071883727411880   0.370923469441450   0.587814703439847   1.0
Pb18   Pb   0.920110631440039   0.598862242952386   0.952713254015570   1.0




# HOIP entry ID:                    1144
# Khazana ID:                       2994
# Organic cation source:            S.Kataoka et al., J. Am. Chem. Soc. 137, 4158 (2015)
# Label:                            Propylammonium Lead Bromide
# Material class:                   Hybrid organic-inorganic perovskite ( MC_ino )
# Geometry class:                   Bulk crystalline materials ( GC_cry )
# Organic cation chemical formula:  CH3CH2CH2NH3
# Number of atom types:             5
# Total number of atoms:            18
# Atom types:                       C H N  Pb Br
# Number of each atom:              3 10 1  1 3
# Bandgap, HSE06 (eV):              3.3254
# Bandgap, GGA (eV):                2.4687
# Kpoint for VBM:                   0.5, 0.5, 0
# Kpoint for CBM:                   0.3571, 0.3571, 0.5
# Dielectric constant, electronic:  3.6819
# Dielectric constant, ionic:       5.6291
# Dielectric constant, total:       9.311
# Refractive index:                 1.9188
# Atomization energy (eV/atom):     -4.4101
# Relative energy1 (eV/atom):       0.0309
# Relative energy2 (eV/atom):       0.2285
# Volume of the unit cell (A^3):    254.75
# Density (g/cm^3):                 3.2972
# Tool:                             VASP
# Pseudopotential:                  PAW
# Note:                             ENCUT=400eV, k-spacing_relax=0.20/Angstrom, k-spacing_bandgap=0.15/Angstrom
# Created by:                       C.Kim, T.D.Huan, S.Krishnan, R. Ramprasad