data_1
_audit_creation_method   'Generated by vasp2cif'
_cell_length_a    6.24814450336
_cell_length_b    6.12206433182
_cell_length_c    7.77395315165
_cell_angle_alpha    74.4743047753
_cell_angle_beta    78.1961161077
_cell_angle_gamma    84.3977688839

_symmetry_space_group_name_H-M    'P 1'
loop_
_atom_site_label
_atom_site_type_symbol
_atom_site_fract_x
_atom_site_fract_y
_atom_site_fract_z
_atom_site_occupancy
C1   C   0.524346979205866   0.646022154862891   0.808514210794520   1.0
C2   C   0.512901413791759   0.244636658961014   0.495765114456255   1.0
C3   C   0.460763953004687   0.347061371918322   0.658700564199279   1.0
C4   C   0.587316425481802   0.558954714320407   0.636887877776090   1.0
H5   H   0.229211933659009   0.379558777118568   0.386952138374532   1.0
H6   H   0.430849220691812   0.308092648049062   0.235944974944331   1.0
H7   H   0.441457929409694   0.549060484310232   0.297773947497959   1.0
H8   H   0.346935851983005   0.675849148586579   0.839873217804168   1.0
H9   H   0.574140009055235   0.520781347675147   0.924986208401975   1.0
H10   H   0.602884903250335   0.803081854079863   0.792667647749731   1.0
H11   H   0.498831655295589   0.215633504643748   0.776396237236781   1.0
H12   H   0.283757604614429   0.387137396973998   0.689488270615890   1.0
H13   H   0.764185122085060   0.517296848750824   0.610392000576816   1.0
H14   H   0.552451587719929   0.693392883357930   0.518999286171955   1.0
H15   H   0.686889016608070   0.243878430858267   0.438164902799336   1.0
H16   H   0.455406043252488   0.073581399454461   0.528639847060781   1.0
Br17   Br   0.004312181405702   0.005951396552405   0.653531089416497   1.0
Br18   Br   0.473844422610618   0.952875289873326   0.145242144669432   1.0
Br19   Br   0.966486872538134   0.448760452040226   0.121395554450650   1.0
N20   N   0.396696471573570   0.381846260919687   0.344281385414412   1.0
Pb21   Pb   0.969560402763200   0.953566976692990   0.032483379588562   1.0




# HOIP entry ID:                    1148
# Khazana ID:                       2998
# Organic cation source:            H. Hu et al., Sci. Rep. 6, 33546 (2016)
# Label:                            Butylammonium Lead Bromide
# Material class:                   Hybrid organic-inorganic perovskite ( MC_ino )
# Geometry class:                   Bulk crystalline materials ( GC_cry )
# Organic cation chemical formula:  CH3CH2CH2CH2NH3
# Number of atom types:             5
# Total number of atoms:            21
# Atom types:                       C H N  Pb Br
# Number of each atom:              4 12 1  1 3
# Bandgap, HSE06 (eV):              3.4833
# Bandgap, GGA (eV):                2.4819
# Kpoint for VBM:                   0.5, 0.5, 0
# Kpoint for CBM:                   0.5, 0.5, 0.5
# Dielectric constant, electronic:  3.4874
# Dielectric constant, ionic:       5.2661
# Dielectric constant, total:       8.7534
# Refractive index:                 1.8675
# Atomization energy (eV/atom):     -4.5053
# Relative energy1 (eV/atom):       -0.02
# Relative energy2 (eV/atom):       0.1493
# Volume of the unit cell (A^3):    280.17
# Density (g/cm^3):                 3.0812
# Tool:                             VASP
# Pseudopotential:                  PAW
# Note:                             ENCUT=400eV, k-spacing_relax=0.20/Angstrom, k-spacing_bandgap=0.15/Angstrom
# Created by:                       C.Kim, T.D.Huan, S.Krishnan, R. Ramprasad