data_1
_audit_creation_method   'Generated by vasp2cif'
_cell_length_a    6.51962275339
_cell_length_b    6.2388042944
_cell_length_c    6.24249190531
_cell_angle_alpha    82.0014331562
_cell_angle_beta    84.0611847502
_cell_angle_gamma    90.9079047896

_symmetry_space_group_name_H-M    'P 1'
loop_
_atom_site_label
_atom_site_type_symbol
_atom_site_fract_x
_atom_site_fract_y
_atom_site_fract_z
_atom_site_occupancy
C1   C   0.412862721480600   0.699730360629211   0.197878137981391   1.0
C2   C   0.566855972848657   0.886450594715107   0.197196843269545   1.0
C3   C   0.485880827879939   0.052814327718885   0.339154745111770   1.0
H4   H   0.451595258035823   0.977819163357260   0.508871426159416   1.0
H5   H   0.595425895657584   0.187847163408584   0.331849395362163   1.0
H6   H   0.343377821820830   0.116083623982583   0.281882668752267   1.0
H7   H   0.868563459347719   0.920162718385249   0.292315811255868   1.0
H8   H   0.616424320717741   0.962536917255633   0.030887461361623   1.0
H9   H   0.478391646713071   0.572767608177983   0.110141178848913   1.0
H10   H   0.280492139900446   0.762084059514670   0.117292044723634   1.0
H11   H   0.359068559741772   0.629132890268757   0.365087296617254   1.0
H12   H   0.834154551304167   0.689193202973975   0.189867691607709   1.0
H13   H   0.729074539056455   0.711814955033404   0.441000306555018   1.0
Br14   Br   0.601111381912922   0.394533575941090   0.736530905693144   1.0
Br15   Br   0.023855814510576   0.865422810420704   0.752540211383383   1.0
Br16   Br   0.002288167389665   0.316946689849487   0.197787721649043   1.0
N17   N   0.764256689800995   0.795341750377659   0.285677772825558   1.0
Pb18   Pb   0.052830231881025   0.345247587989739   0.720618380842247   1.0




# HOIP entry ID:                    1149
# Khazana ID:                       2999
# Organic cation source:            C.C.Stoumpos et al., J. Am. Chem. Soc. 137, 6804 (2015)
# Label:                            Isopropylammonium Lead Bromide
# Material class:                   Hybrid organic-inorganic perovskite ( MC_ino )
# Geometry class:                   Bulk crystalline materials ( GC_cry )
# Organic cation chemical formula:  (CH3)2CHNH3
# Number of atom types:             5
# Total number of atoms:            18
# Atom types:                       C H N  Pb Br
# Number of each atom:              3 10 1  1 3
# Bandgap, HSE06 (eV):              3.5293
# Bandgap, GGA (eV):                2.4719
# Kpoint for VBM:                   0.4211, 0.4211, 0.4211
# Kpoint for CBM:                   0.5, 0.5, 0.5
# Dielectric constant, electronic:  3.9034
# Dielectric constant, ionic:       8.8294
# Dielectric constant, total:       12.7328
# Refractive index:                 1.9757
# Atomization energy (eV/atom):     -4.4187
# Relative energy1 (eV/atom):       0.0283
# Relative energy2 (eV/atom):       0.2259
# Volume of the unit cell (A^3):    249.97
# Density (g/cm^3):                 3.3603
# Tool:                             VASP
# Pseudopotential:                  PAW
# Note:                             ENCUT=400eV, k-spacing_relax=0.20/Angstrom, k-spacing_bandgap=0.15/Angstrom
# Created by:                       C.Kim, T.D.Huan, S.Krishnan, R. Ramprasad