data_1
_audit_creation_method   'Generated by vasp2cif'
_cell_length_a    6.14260815721
_cell_length_b    6.34851680146
_cell_length_c    6.44957473112
_cell_angle_alpha    87.5241204546
_cell_angle_beta    94.3336161807
_cell_angle_gamma    81.239562722

_symmetry_space_group_name_H-M    'P 1'
loop_
_atom_site_label
_atom_site_type_symbol
_atom_site_fract_x
_atom_site_fract_y
_atom_site_fract_z
_atom_site_occupancy
C1   C   0.233968623026982   0.795539330295107   0.527740823795583   1.0
C2   C   0.349860405942188   0.879400992405266   0.348164121597108   1.0
C3   C   0.559177177846379   0.966825169832667   0.417868216217869   1.0
H4   H   0.512763689217280   0.107942640184326   0.505355797166260   1.0
H5   H   0.672046232165734   0.849974899741788   0.520006307399498   1.0
H6   H   0.645079226034291   0.013516323692016   0.285674976408785   1.0
H7   H   0.498042544026120   0.747785699420049   0.084119151328430   1.0
H8   H   0.236375796949567   0.000263305730023   0.251571210867198   1.0
H9   H   0.200929223277996   0.922477499616882   0.635210259586778   1.0
H10   H   0.338641982036741   0.659415191194043   0.613847620426441   1.0
H11   H   0.077478252260107   0.746290946526273   0.474352117480507   1.0
H12   H   0.269271365421929   0.647865273205305   0.135518643402705   1.0
H13   H   0.510514014341886   0.569299447592854   0.280867323776256   1.0
Br14   Br   0.899149338569892   0.361027272344806   0.410990325347257   1.0
Br15   Br   0.877490201366371   0.772724841913892   0.942506750825679   1.0
Br16   Br   0.394198490099946   0.268794031499752   0.908427112497812   1.0
N17   N   0.409344572321643   0.698036160810950   0.202254078377614   1.0
Pb18   Pb   0.903598865094942   0.307570973994004   0.863545163498387   1.0




# HOIP entry ID:                    1150
# Khazana ID:                       3000
# Organic cation source:            C.C.Stoumpos et al., J. Am. Chem. Soc. 137, 6804 (2015)
# Label:                            Isopropylammonium Lead Bromide
# Material class:                   Hybrid organic-inorganic perovskite ( MC_ino )
# Geometry class:                   Bulk crystalline materials ( GC_cry )
# Organic cation chemical formula:  (CH3)2CHNH3
# Number of atom types:             5
# Total number of atoms:            18
# Atom types:                       C H N  Pb Br
# Number of each atom:              3 10 1  1 3
# Bandgap, HSE06 (eV):              3.183
# Bandgap, GGA (eV):                2.2971
# Kpoint for VBM:                   0.5, 0.5, 0.3158
# Kpoint for CBM:                   0.5, 0.5, 0.5
# Dielectric constant, electronic:  3.9705
# Dielectric constant, ionic:       8.0889
# Dielectric constant, total:       12.0594
# Refractive index:                 1.9926
# Atomization energy (eV/atom):     -4.4195
# Relative energy1 (eV/atom):       0.0276
# Relative energy2 (eV/atom):       0.2252
# Volume of the unit cell (A^3):    247.48
# Density (g/cm^3):                 3.3941
# Tool:                             VASP
# Pseudopotential:                  PAW
# Note:                             ENCUT=400eV, k-spacing_relax=0.20/Angstrom, k-spacing_bandgap=0.15/Angstrom
# Created by:                       C.Kim, T.D.Huan, S.Krishnan, R. Ramprasad