data_1
_audit_creation_method   'Generated by vasp2cif'
_cell_length_a    6.44861878512
_cell_length_b    6.28774521285
_cell_length_c    6.23432651892
_cell_angle_alpha    80.0780526248
_cell_angle_beta    84.9656469139
_cell_angle_gamma    91.7576793555

_symmetry_space_group_name_H-M    'P 1'
loop_
_atom_site_label
_atom_site_type_symbol
_atom_site_fract_x
_atom_site_fract_y
_atom_site_fract_z
_atom_site_occupancy
C1   C   0.432638704692053   0.640904828352902   0.350293136302234   1.0
C2   C   0.605825680691481   0.753663520339174   0.445785223861939   1.0
C3   C   0.533185305423267   0.844045577622467   0.649321962183805   1.0
H4   H   0.426993870315890   0.972480000750970   0.603350977103588   1.0
H5   H   0.449839032791360   0.719803019666998   0.774176320265980   1.0
H6   H   0.663482060935713   0.912305980424300   0.718994354713502   1.0
H7   H   0.887871987294737   0.660360953476001   0.581906917632715   1.0
H8   H   0.685005925285736   0.880788827504801   0.321566421709839   1.0
H9   H   0.310995268275697   0.754802392384725   0.312378482383821   1.0
H10   H   0.362336541286418   0.501603774409404   0.467449121306004   1.0
H11   H   0.488966684296990   0.585111517147439   0.200180996102553   1.0
H12   H   0.844743393878808   0.543396337980738   0.366679567187553   1.0
H13   H   0.710854490157708   0.457054952348962   0.613029484584857   1.0
Br14   Br   0.554472406418810   0.234827456969896   0.982630915392647   1.0
Br15   Br   0.014690057633665   0.667836642593258   0.975049912739621   1.0
Br16   Br   0.043806474866884   0.135107521880300   0.462724688102426   1.0
N17   N   0.774372905861235   0.591576058990498   0.504676735905214   1.0
Pb18   Pb   0.099649209893578   0.191140637157190   0.986554782521701   1.0




# HOIP entry ID:                    1151
# Khazana ID:                       3001
# Organic cation source:            C.C.Stoumpos et al., J. Am. Chem. Soc. 137, 6804 (2015)
# Label:                            Isopropylammonium Lead Bromide
# Material class:                   Hybrid organic-inorganic perovskite ( MC_ino )
# Geometry class:                   Bulk crystalline materials ( GC_cry )
# Organic cation chemical formula:  (CH3)2CHNH3
# Number of atom types:             5
# Total number of atoms:            18
# Atom types:                       C H N  Pb Br
# Number of each atom:              3 10 1  1 3
# Bandgap, HSE06 (eV):              3.2861
# Bandgap, GGA (eV):                2.3871
# Kpoint for VBM:                   0.4737, 0.4737, 0.4737
# Kpoint for CBM:                   0.5, 0.5, 0.5
# Dielectric constant, electronic:  3.9488
# Dielectric constant, ionic:       7.9685
# Dielectric constant, total:       11.9173
# Refractive index:                 1.9872
# Atomization energy (eV/atom):     -4.4197
# Relative energy1 (eV/atom):       0.0273
# Relative energy2 (eV/atom):       0.2249
# Volume of the unit cell (A^3):    247.77
# Density (g/cm^3):                 3.3901
# Tool:                             VASP
# Pseudopotential:                  PAW
# Note:                             ENCUT=400eV, k-spacing_relax=0.20/Angstrom, k-spacing_bandgap=0.15/Angstrom
# Created by:                       C.Kim, T.D.Huan, S.Krishnan, R. Ramprasad