data_1
_audit_creation_method   'Generated by vasp2cif'
_cell_length_a    6.24332152681
_cell_length_b    6.08999487661
_cell_length_c    6.56709858212
_cell_angle_alpha    94.5756990606
_cell_angle_beta    91.8951183641
_cell_angle_gamma    84.0100242905

_symmetry_space_group_name_H-M    'P 1'
loop_
_atom_site_label
_atom_site_type_symbol
_atom_site_fract_x
_atom_site_fract_y
_atom_site_fract_z
_atom_site_occupancy
C1   C   0.600826620007551   0.724284374572694   0.624084041773289   1.0
C2   C   0.456286813014919   0.538603580698884   0.634586466693388   1.0
C3   C   0.328301791116062   0.555063167351019   0.829744463014733   1.0
H4   H   0.439502896299010   0.553328121125216   0.961379542467830   1.0
H5   H   0.229653960541598   0.417937530282026   0.833105586852083   1.0
H6   H   0.224106695535237   0.711441297355120   0.841887877034575   1.0
H7   H   0.364255903026058   0.515021665534638   0.316734703479358   1.0
H8   H   0.548672650744799   0.376087966797360   0.609680753803466   1.0
H9   H   0.732686630957753   0.700754423699826   0.736252851063284   1.0
H10   H   0.670140100334610   0.721295006496342   0.473705512515636   1.0
H11   H   0.511377158750436   0.886617458697508   0.659664865075502   1.0
H12   H   0.183175534971921   0.432835290038594   0.465066040576982   1.0
H13   H   0.205122009696854   0.704386173280207   0.459155191033296   1.0
Br14   Br   0.993410554454632   0.093609780127798   0.560543784038998   1.0
Br15   Br   0.867484019133693   0.543342467114691   0.128422448440134   1.0
Br16   Br   0.438938794923053   0.076473006119272   0.148721109302110   1.0
N17   N   0.291199574398723   0.549333047829886   0.455491742150483   1.0
Pb18   Pb   0.910708292093046   0.058105642878877   0.107033020684805   1.0




# HOIP entry ID:                    1152
# Khazana ID:                       3002
# Organic cation source:            C.C.Stoumpos et al., J. Am. Chem. Soc. 137, 6804 (2015)
# Label:                            Isopropylammonium Lead Bromide
# Material class:                   Hybrid organic-inorganic perovskite ( MC_ino )
# Geometry class:                   Bulk crystalline materials ( GC_cry )
# Organic cation chemical formula:  (CH3)2CHNH3
# Number of atom types:             5
# Total number of atoms:            18
# Atom types:                       C H N  Pb Br
# Number of each atom:              3 10 1  1 3
# Bandgap, HSE06 (eV):              3.4613
# Bandgap, GGA (eV):                2.4579
# Kpoint for VBM:                   0.5, 0.5, 0.5
# Kpoint for CBM:                   0.5, 0.5, 0.5
# Dielectric constant, electronic:  3.9603
# Dielectric constant, ionic:       9.8165
# Dielectric constant, total:       13.7768
# Refractive index:                 1.9901
# Atomization energy (eV/atom):     -4.416
# Relative energy1 (eV/atom):       0.031
# Relative energy2 (eV/atom):       0.2286
# Volume of the unit cell (A^3):    247.46
# Density (g/cm^3):                 3.3944
# Tool:                             VASP
# Pseudopotential:                  PAW
# Note:                             ENCUT=400eV, k-spacing_relax=0.20/Angstrom, k-spacing_bandgap=0.15/Angstrom
# Created by:                       C.Kim, T.D.Huan, S.Krishnan, R. Ramprasad