data_1
_audit_creation_method   'Generated by vasp2cif'
_cell_length_a    8.27200857622
_cell_length_b    4.71029747619
_cell_length_c    7.27271258046
_cell_angle_alpha    109.546910975
_cell_angle_beta    79.2355692113
_cell_angle_gamma    104.315613959

_symmetry_space_group_name_H-M    'P 1'
loop_
_atom_site_label
_atom_site_type_symbol
_atom_site_fract_x
_atom_site_fract_y
_atom_site_fract_z
_atom_site_occupancy
C1   C   0.348697280266826   0.355410004237804   0.684242469952075   1.0
C2   C   0.403123454333212   0.052531917610338   0.562020322531225   1.0
C3   C   0.271426287607127   0.839547550183731   0.428792617432727   1.0
H4   H   0.150934441850566   0.797605728675947   0.516979930276968   1.0
H5   H   0.305830827509730   0.619068491836693   0.345413764192351   1.0
H6   H   0.252422568284324   0.947559700490380   0.324363933588629   1.0
H7   H   0.662731504366448   0.265279878575683   0.513768271620386   1.0
H8   H   0.431808135796466   0.944081351997326   0.659970308115284   1.0
H9   H   0.292106248664886   0.440518726352032   0.594056222315039   1.0
H10   H   0.254637263207158   0.308764231128372   0.803815666952936   1.0
H11   H   0.452048753210775   0.531162157395507   0.751642215321056   1.0
H12   H   0.611580210805265   0.908713614402267   0.360585693295917   1.0
H13   H   0.557423747701975   0.201588647277894   0.325387193218127   1.0
Br14   Br   0.563850863201232   0.398938985378116   0.072402041010918   1.0
Br15   Br   0.997451483127662   0.150007024814158   0.175116901553842   1.0
Br16   Br   0.813783566017555   0.803746773296275   0.637571221655051   1.0
N17   N   0.569825834625412   0.111273161858179   0.433444198200853   1.0
Pb18   Pb   0.909677529423348   0.481722054489438   0.916357028766534   1.0




# HOIP entry ID:                    1153
# Khazana ID:                       3003
# Organic cation source:            C.C.Stoumpos et al., J. Am. Chem. Soc. 137, 6804 (2015)
# Label:                            Isopropylammonium Lead Bromide
# Material class:                   Hybrid organic-inorganic perovskite ( MC_ino )
# Geometry class:                   Bulk crystalline materials ( GC_cry )
# Organic cation chemical formula:  (CH3)2CHNH3
# Number of atom types:             5
# Total number of atoms:            18
# Atom types:                       C H N  Pb Br
# Number of each atom:              3 10 1  1 3
# Bandgap, HSE06 (eV):              3.8618
# Bandgap, GGA (eV):                2.8854
# Kpoint for VBM:                   0.2, -0.3333, 0.25
# Kpoint for CBM:                   0, 0, 0.4167
# Dielectric constant, electronic:  3.4293
# Dielectric constant, ionic:       8.1146
# Dielectric constant, total:       11.5439
# Refractive index:                 1.8518
# Atomization energy (eV/atom):     -4.4123
# Relative energy1 (eV/atom):       0.0347
# Relative energy2 (eV/atom):       0.2323
# Volume of the unit cell (A^3):    257.06
# Density (g/cm^3):                 3.2676
# Tool:                             VASP
# Pseudopotential:                  PAW
# Note:                             ENCUT=400eV, k-spacing_relax=0.20/Angstrom, k-spacing_bandgap=0.15/Angstrom
# Created by:                       C.Kim, T.D.Huan, S.Krishnan, R. Ramprasad