data_1
_audit_creation_method   'Generated by vasp2cif'
_cell_length_a    7.35189943226
_cell_length_b    4.69250619938
_cell_length_c    8.16308892746
_cell_angle_alpha    104.35408063
_cell_angle_beta    90.8100723065
_cell_angle_gamma    108.330768264

_symmetry_space_group_name_H-M    'P 1'
loop_
_atom_site_label
_atom_site_type_symbol
_atom_site_fract_x
_atom_site_fract_y
_atom_site_fract_z
_atom_site_occupancy
C1   C   0.330603446872281   0.643466849478415   0.326848665454207   1.0
C2   C   0.452044947011196   0.469912121720611   0.387237788118661   1.0
C3   C   0.582933092656688   0.381211414353246   0.254407557070444   1.0
H4   H   0.496629412712778   0.242669515767702   0.134398497176726   1.0
H5   H   0.665827605186152   0.249057660241441   0.293294298843122   1.0
H6   H   0.684235630356795   0.590375713321855   0.229450123894203   1.0
H7   H   0.499728180923704   0.756327025346337   0.644914154187731   1.0
H8   H   0.357056721631935   0.267584324445366   0.422119426860995   1.0
H9   H   0.418361926932704   0.815021817867745   0.265826440925423   1.0
H10   H   0.215293595859656   0.471064528564625   0.233247209086699   1.0
H11   H   0.261946856705713   0.755246956848715   0.429422446941850   1.0
H12   H   0.645641710964867   0.541421382702111   0.602200265999052   1.0
H13   H   0.687111335772450   0.859756622426680   0.534840350790695   1.0
Br14   Br   0.939516389730422   0.311522597191228   0.543058283500990   1.0
Br15   Br   0.830318844672917   0.951654126164208   0.976279419765817   1.0
Br16   Br   0.367792625887397   0.150395109452369   0.797789892368421   1.0
N17   N   0.578108136649796   0.668881034868200   0.553109619903012   1.0
Pb18   Pb   0.088389539472551   0.546351199239140   0.891645559111780   1.0




# HOIP entry ID:                    1154
# Khazana ID:                       3004
# Organic cation source:            C.C.Stoumpos et al., J. Am. Chem. Soc. 137, 6804 (2015)
# Label:                            Isopropylammonium Lead Bromide
# Material class:                   Hybrid organic-inorganic perovskite ( MC_ino )
# Geometry class:                   Bulk crystalline materials ( GC_cry )
# Organic cation chemical formula:  (CH3)2CHNH3
# Number of atom types:             5
# Total number of atoms:            18
# Atom types:                       C H N  Pb Br
# Number of each atom:              3 10 1  1 3
# Bandgap, HSE06 (eV):              3.9202
# Bandgap, GGA (eV):                2.9311
# Kpoint for VBM:                   0.2, -0.3333, 0.2
# Kpoint for CBM:                   0.4, 0, 0
# Dielectric constant, electronic:  3.4133
# Dielectric constant, ionic:       7.3105
# Dielectric constant, total:       10.7238
# Refractive index:                 1.8475
# Atomization energy (eV/atom):     -4.4125
# Relative energy1 (eV/atom):       0.0345
# Relative energy2 (eV/atom):       0.2321
# Volume of the unit cell (A^3):    257.68
# Density (g/cm^3):                 3.2598
# Tool:                             VASP
# Pseudopotential:                  PAW
# Note:                             ENCUT=400eV, k-spacing_relax=0.20/Angstrom, k-spacing_bandgap=0.15/Angstrom
# Created by:                       C.Kim, T.D.Huan, S.Krishnan, R. Ramprasad