data_1
_audit_creation_method   'Generated by vasp2cif'
_cell_length_a    7.76568716126
_cell_length_b    4.46112704475
_cell_length_c    7.80165498627
_cell_angle_alpha    76.3744758944
_cell_angle_beta    78.8261535302
_cell_angle_gamma    90.3116594075

_symmetry_space_group_name_H-M    'P 1'
loop_
_atom_site_label
_atom_site_type_symbol
_atom_site_fract_x
_atom_site_fract_y
_atom_site_fract_z
_atom_site_occupancy
C1   C   0.569775974140754   0.009494978759435   0.297053310021120   1.0
C2   C   0.545907918201578   0.990428951924414   0.498511846084604   1.0
C3   C   0.688911732679429   0.176667236565109   0.543699264778439   1.0
H4   H   0.813924165575507   0.069125831430817   0.515067994336874   1.0
H5   H   0.664062032823807   0.179362609677270   0.685931639769237   1.0
H6   H   0.703202952570550   0.414653257942739   0.461869414680848   1.0
H7   H   0.351726990617131   0.113239570789844   0.701927585182368   1.0
H8   H   0.541896508798445   0.751564753323770   0.575682236946534   1.0
H9   H   0.463992421262510   0.885863080825082   0.263409118997942   1.0
H10   H   0.576583305482721   0.249847500872356   0.219272572224107   1.0
H11   H   0.693110440263112   0.907055099637084   0.252255651244745   1.0
H12   H   0.337523505491795   0.312583430863285   0.495538422203353   1.0
H13   H   0.264384919335747   0.947632881778681   0.563514318027380   1.0
Br14   Br   0.397429346780619   0.442322573276258   0.922341587476758   1.0
Br15   Br   0.938328115080793   0.899693993125517   0.882416159138266   1.0
Br16   Br   0.101287197091942   0.674845031397233   0.400112756685701   1.0
N17   N   0.363666609689275   0.098829309650490   0.569591041831380   1.0
Pb18   Pb   0.044945864114318   0.317809908160626   0.109235080370382   1.0




# HOIP entry ID:                    1155
# Khazana ID:                       3005
# Organic cation source:            C.C.Stoumpos et al., J. Am. Chem. Soc. 137, 6804 (2015)
# Label:                            Isopropylammonium Lead Bromide
# Material class:                   Hybrid organic-inorganic perovskite ( MC_ino )
# Geometry class:                   Bulk crystalline materials ( GC_cry )
# Organic cation chemical formula:  (CH3)2CHNH3
# Number of atom types:             5
# Total number of atoms:            18
# Atom types:                       C H N  Pb Br
# Number of each atom:              3 10 1  1 3
# Bandgap, HSE06 (eV):              4.1434
# Bandgap, GGA (eV):                3.1531
# Kpoint for VBM:                   0.2, 0.2222, 0.25
# Kpoint for CBM:                   0, 0, 0.4167
# Dielectric constant, electronic:  3.3709
# Dielectric constant, ionic:       4.0985
# Dielectric constant, total:       7.4694
# Refractive index:                 1.836
# Atomization energy (eV/atom):     -4.4107
# Relative energy1 (eV/atom):       0.0363
# Relative energy2 (eV/atom):       0.2339
# Volume of the unit cell (A^3):    257.32
# Density (g/cm^3):                 3.2643
# Tool:                             VASP
# Pseudopotential:                  PAW
# Note:                             ENCUT=400eV, k-spacing_relax=0.20/Angstrom, k-spacing_bandgap=0.15/Angstrom
# Created by:                       C.Kim, T.D.Huan, S.Krishnan, R. Ramprasad