data_1
_audit_creation_method   'Generated by vasp2cif'
_cell_length_a    6.2592063061
_cell_length_b    4.47953103491
_cell_length_c    9.06040248891
_cell_angle_alpha    84.1913819735
_cell_angle_beta    85.5157762953
_cell_angle_gamma    95.545257518

_symmetry_space_group_name_H-M    'P 1'
loop_
_atom_site_label
_atom_site_type_symbol
_atom_site_fract_x
_atom_site_fract_y
_atom_site_fract_z
_atom_site_occupancy
C1   C   0.493796716668691   0.582810882599358   0.648566000737668   1.0
C2   C   0.436498484264128   0.427261577246602   0.513028829420189   1.0
C3   C   0.296388667955196   0.602746278875835   0.413009176145958   1.0
H4   H   0.155606364199498   0.654101729781621   0.481264119641223   1.0
H5   H   0.242672487969797   0.474920586113909   0.324107653068197   1.0
H6   H   0.382469058138515   0.816634007558743   0.360541987132638   1.0
H7   H   0.618323914407317   0.269046980196206   0.330357397368008   1.0
H8   H   0.357945702426617   0.200037605831952   0.547940872224807   1.0
H9   H   0.580738563431767   0.442321055183557   0.723267591469779   1.0
H10   H   0.593022204381909   0.797769143528652   0.616319055851819   1.0
H11   H   0.346091004651135   0.629073772490668   0.710403173420856   1.0
H12   H   0.731856263627830   0.587463375674885   0.378918837491765   1.0
H13   H   0.746876535969951   0.265332075104679   0.486779203395864   1.0
Br14   Br   0.497962193275246   0.408051493302077   0.044165236225607   1.0
Br15   Br   0.953255554459809   0.980443552875102   0.219587533719340   1.0
Br16   Br   0.961488509495016   0.081309416946689   0.729496640616609   1.0
N17   N   0.646678510243175   0.382032200007624   0.422142608437163   1.0
Pb18   Pb   0.960409264434374   0.528774266681614   0.974594083632397   1.0




# HOIP entry ID:                    1156
# Khazana ID:                       3006
# Organic cation source:            C.C.Stoumpos et al., J. Am. Chem. Soc. 137, 6804 (2015)
# Label:                            Isopropylammonium Lead Bromide
# Material class:                   Hybrid organic-inorganic perovskite ( MC_ino )
# Geometry class:                   Bulk crystalline materials ( GC_cry )
# Organic cation chemical formula:  (CH3)2CHNH3
# Number of atom types:             5
# Total number of atoms:            18
# Atom types:                       C H N  Pb Br
# Number of each atom:              3 10 1  1 3
# Bandgap, HSE06 (eV):              4.1353
# Bandgap, GGA (eV):                2.997
# Kpoint for VBM:                   -0.1667, 0.0556, 0.5
# Kpoint for CBM:                   -0.25, 0, 0.375
# Dielectric constant, electronic:  3.6319
# Dielectric constant, ionic:       7.0841
# Dielectric constant, total:       10.716
# Refractive index:                 1.9058
# Atomization energy (eV/atom):     -4.4097
# Relative energy1 (eV/atom):       0.0373
# Relative energy2 (eV/atom):       0.2349
# Volume of the unit cell (A^3):    250.56
# Density (g/cm^3):                 3.3524
# Tool:                             VASP
# Pseudopotential:                  PAW
# Note:                             ENCUT=400eV, k-spacing_relax=0.20/Angstrom, k-spacing_bandgap=0.15/Angstrom
# Created by:                       C.Kim, T.D.Huan, S.Krishnan, R. Ramprasad