data_1
_audit_creation_method   'Generated by vasp2cif'
_cell_length_a    6.34504758908
_cell_length_b    6.10796693209
_cell_length_c    6.08279126888
_cell_angle_alpha    87.5431703194
_cell_angle_beta    94.6283675582
_cell_angle_gamma    95.9263394554

_symmetry_space_group_name_H-M    'P 1'
loop_
_atom_site_label
_atom_site_type_symbol
_atom_site_fract_x
_atom_site_fract_y
_atom_site_fract_z
_atom_site_occupancy
Br1   Br   0.479303439119221   0.883280302038166   0.981223273466192   1.0
Br2   Br   0.944146989749385   0.938475736298024   0.490926569671544   1.0
Br3   Br   0.933151844066167   0.439464772827222   0.982256040290260   1.0
H4   H   0.500383538330077   0.646983161385748   0.336888703457966   1.0
H5   H   0.793759728697864   0.420610287656984   0.434468766383460   1.0
H6   H   0.576025915961353   0.649470314579169   0.603380192336317   1.0
H7   H   0.204301723915840   0.369932385477441   0.405506534105264   1.0
H8   H   0.289576130651660   0.379378505611577   0.693317918337193   1.0
H9   H   0.193529577572683   0.615913762650756   0.551876073152023   1.0
H10   H   0.561672725568059   0.268095069295448   0.312191225502708   1.0
H11   H   0.620084628290556   0.253947580613321   0.605984684115683   1.0
C12   C   0.279446738597763   0.473008328512918   0.537167520127610   1.0
C13   C   0.630332748050776   0.357570947599434   0.456483463588640   1.0
Pb14   Pb   0.994430600040161   0.930603802856552   0.990699581600950   1.0
N15   N   0.502757571491458   0.549752829404795   0.481122386054324   1.0




# HOIP entry ID:                    1157
# Khazana ID:                       3007
# Organic cation source:            B.Saparov et al., Chem. Rev. 116, 4558 (2016)
# Label:                            Dimethylammonium Lead Bromide
# Material class:                   Hybrid organic-inorganic perovskite ( MC_ino )
# Geometry class:                   Bulk crystalline materials ( GC_cry )
# Organic cation chemical formula:  (CH3)2NH2
# Number of atom types:             5
# Total number of atoms:            15
# Atom types:                       C H N  Pb Br
# Number of each atom:              2 8 1  1 3
# Bandgap, HSE06 (eV):              3.0243
# Bandgap, GGA (eV):                2.1394
# Kpoint for VBM:                   0.5, 0.5, 0.5
# Kpoint for CBM:                   0.5, 0.5, 0.4211
# Dielectric constant, electronic:  4.1865
# Dielectric constant, ionic:       28.7479
# Dielectric constant, total:       32.9344
# Refractive index:                 2.0461
# Atomization energy (eV/atom):     -4.2648
# Relative energy1 (eV/atom):       0.0922
# Relative energy2 (eV/atom):       0.3293
# Volume of the unit cell (A^3):    233.57
# Density (g/cm^3):                 3.4965
# Tool:                             VASP
# Pseudopotential:                  PAW
# Note:                             ENCUT=400eV, k-spacing_relax=0.20/Angstrom, k-spacing_bandgap=0.15/Angstrom
# Created by:                       C.Kim, T.D.Huan, S.Krishnan, R. Ramprasad