data_1
_audit_creation_method   'Generated by vasp2cif'
_cell_length_a    6.1848647628
_cell_length_b    6.1963366525
_cell_length_c    6.17195028738
_cell_angle_alpha    85.7965929638
_cell_angle_beta    99.2879607713
_cell_angle_gamma    97.6953974622

_symmetry_space_group_name_H-M    'P 1'
loop_
_atom_site_label
_atom_site_type_symbol
_atom_site_fract_x
_atom_site_fract_y
_atom_site_fract_z
_atom_site_occupancy
Br1   Br   0.453591863976754   0.962429295692655   0.945372978207079   1.0
Br2   Br   0.898476018054796   0.934636935611494   0.490069437453238   1.0
Br3   Br   0.979607908238738   0.464555981246004   0.006333829651433   1.0
H4   H   0.341530184510068   0.567546358166375   0.263610133565453   1.0
H5   H   0.668566071941058   0.391460816618132   0.275803472242038   1.0
H6   H   0.547793804637849   0.685604682350086   0.441199442495383   1.0
H7   H   0.171574001847285   0.363116977630952   0.548237317421570   1.0
H8   H   0.394584072189205   0.474244933239965   0.747150996039032   1.0
H9   H   0.209123357740959   0.648745780043039   0.594708784305380   1.0
H10   H   0.454136445591713   0.209254371676941   0.378834667736725   1.0
H11   H   0.674471283727344   0.341777988567618   0.566182557982624   1.0
C12   C   0.291299016163097   0.505172936122792   0.590493350812200   1.0
C13   C   0.569541861276423   0.356967844240533   0.407656916813284   1.0
Pb14   Pb   0.937726330051507   0.971799944828296   0.992198588195127   1.0
N15   N   0.438371070590827   0.544474961554637   0.414678420675177   1.0




# HOIP entry ID:                    1158
# Khazana ID:                       3008
# Organic cation source:            B.Saparov et al., Chem. Rev. 116, 4558 (2016)
# Label:                            Dimethylammonium Lead Bromide
# Material class:                   Hybrid organic-inorganic perovskite ( MC_ino )
# Geometry class:                   Bulk crystalline materials ( GC_cry )
# Organic cation chemical formula:  (CH3)2NH2
# Number of atom types:             5
# Total number of atoms:            15
# Atom types:                       C H N  Pb Br
# Number of each atom:              2 8 1  1 3
# Bandgap, HSE06 (eV):              2.9199
# Bandgap, GGA (eV):                2.0214
# Kpoint for VBM:                   0.5, 0.5, 0.5
# Kpoint for CBM:                   0.5, 0.5, 0.4474
# Dielectric constant, electronic:  4.1999
# Dielectric constant, ionic:       19.2473
# Dielectric constant, total:       23.4471
# Refractive index:                 2.0494
# Atomization energy (eV/atom):     -4.269
# Relative energy1 (eV/atom):       0.088
# Relative energy2 (eV/atom):       0.3251
# Volume of the unit cell (A^3):    231
# Density (g/cm^3):                 3.5354
# Tool:                             VASP
# Pseudopotential:                  PAW
# Note:                             ENCUT=400eV, k-spacing_relax=0.20/Angstrom, k-spacing_bandgap=0.15/Angstrom
# Created by:                       C.Kim, T.D.Huan, S.Krishnan, R. Ramprasad