data_1
_audit_creation_method   'Generated by vasp2cif'
_cell_length_a    6.18738459841
_cell_length_b    6.19861040994
_cell_length_c    6.15678717948
_cell_angle_alpha    81.8387008811
_cell_angle_beta    98.878485861
_cell_angle_gamma    94.7591346059

_symmetry_space_group_name_H-M    'P 1'
loop_
_atom_site_label
_atom_site_type_symbol
_atom_site_fract_x
_atom_site_fract_y
_atom_site_fract_z
_atom_site_occupancy
Br1   Br   0.449365137780468   0.919715020265727   0.021453821166368   1.0
Br2   Br   0.980896602095996   0.962865281482635   0.478610497856330   1.0
Br3   Br   0.927419703590715   0.452501392764660   0.944369303078147   1.0
H4   H   0.522562993945087   0.669691432555567   0.377038659349445   1.0
H5   H   0.671599872805821   0.351518313345764   0.276362748150135   1.0
H6   H   0.670606373908456   0.531792780682046   0.594715395699758   1.0
H7   H   0.184409544739388   0.488772051421705   0.499009599323863   1.0
H8   H   0.353309938172004   0.357538907689808   0.735050752757680   1.0
H9   H   0.338996503927895   0.648255883838132   0.697260544591842   1.0
H10   H   0.378587671147521   0.347225420723497   0.226459170550207   1.0
H11   H   0.513462465585079   0.185431367165691   0.464912370238594   1.0
C12   C   0.335247348942701   0.504086604120012   0.614682729724159   1.0
C13   C   0.523008993433258   0.337308106190122   0.352541202269798   1.0
Pb14   Pb   0.945387028991334   0.959694823653038   0.989935126216537   1.0
N15   N   0.525939980744106   0.525103128140778   0.484969941483442   1.0




# HOIP entry ID:                    1159
# Khazana ID:                       3009
# Organic cation source:            B.Saparov et al., Chem. Rev. 116, 4558 (2016)
# Label:                            Dimethylammonium Lead Bromide
# Material class:                   Hybrid organic-inorganic perovskite ( MC_ino )
# Geometry class:                   Bulk crystalline materials ( GC_cry )
# Organic cation chemical formula:  (CH3)2NH2
# Number of atom types:             5
# Total number of atoms:            15
# Atom types:                       C H N  Pb Br
# Number of each atom:              2 8 1  1 3
# Bandgap, HSE06 (eV):              2.8697
# Bandgap, GGA (eV):                2.0009
# Kpoint for VBM:                   0.5, 0.5, 0.5
# Kpoint for CBM:                   0.5, 0.5, 0.5
# Dielectric constant, electronic:  4.241
# Dielectric constant, ionic:       29.9149
# Dielectric constant, total:       34.1559
# Refractive index:                 2.0594
# Atomization energy (eV/atom):     -4.2689
# Relative energy1 (eV/atom):       0.088
# Relative energy2 (eV/atom):       0.3252
# Volume of the unit cell (A^3):    230.49
# Density (g/cm^3):                 3.5432
# Tool:                             VASP
# Pseudopotential:                  PAW
# Note:                             ENCUT=400eV, k-spacing_relax=0.20/Angstrom, k-spacing_bandgap=0.15/Angstrom
# Created by:                       C.Kim, T.D.Huan, S.Krishnan, R. Ramprasad