data_1
_audit_creation_method   'Generated by vasp2cif'
_cell_length_a    6.20758257731
_cell_length_b    6.1624823518
_cell_length_c    6.17974450806
_cell_angle_alpha    87.2695002632
_cell_angle_beta    84.3039967557
_cell_angle_gamma    79.4772180215

_symmetry_space_group_name_H-M    'P 1'
loop_
_atom_site_label
_atom_site_type_symbol
_atom_site_fract_x
_atom_site_fract_y
_atom_site_fract_z
_atom_site_occupancy
Br1   Br   0.068442289493454   0.962908901673600   0.485609082356682   1.0
Br2   Br   0.542553543517982   0.030648053732918   0.995106869666770   1.0
Br3   Br   0.981954315654072   0.475009822778375   0.014098050033134   1.0
H4   H   0.411048744183546   0.691839776030989   0.363995205173652   1.0
H5   H   0.274380939231115   0.353803228337853   0.337804834661128   1.0
H6   H   0.608728730664744   0.503286308158330   0.244267753706993   1.0
H7   H   0.570879508087614   0.622841739680290   0.708154191437622   1.0
H8   H   0.783132635584124   0.422575426058081   0.576600069648315   1.0
H9   H   0.758059933213325   0.708183744235264   0.496567634053577   1.0
H10   H   0.283383246344101   0.422322643545890   0.615052245265993   1.0
H11   H   0.492331912737392   0.214623727603858   0.490357482027115   1.0
C12   C   0.669269141956995   0.577300674996856   0.555794827410843   1.0
C13   C   0.380238318765024   0.369343927103593   0.463705374161208   1.0
Pb14   Pb   0.023804216894654   0.974858970485450   0.977259180341811   1.0
N15   N   0.516062523671849   0.543973055578562   0.390167200055259   1.0




# HOIP entry ID:                    1160
# Khazana ID:                       3010
# Organic cation source:            B.Saparov et al., Chem. Rev. 116, 4558 (2016)
# Label:                            Dimethylammonium Lead Bromide
# Material class:                   Hybrid organic-inorganic perovskite ( MC_ino )
# Geometry class:                   Bulk crystalline materials ( GC_cry )
# Organic cation chemical formula:  (CH3)2NH2
# Number of atom types:             5
# Total number of atoms:            15
# Atom types:                       C H N  Pb Br
# Number of each atom:              2 8 1  1 3
# Bandgap, HSE06 (eV):              2.9779
# Bandgap, GGA (eV):                2.1149
# Kpoint for VBM:                   0.5, 0.5, 0.5
# Kpoint for CBM:                   0.5, 0.5, 0.5
# Dielectric constant, electronic:  4.1622
# Dielectric constant, ionic:       15.4394
# Dielectric constant, total:       19.6016
# Refractive index:                 2.0401
# Atomization energy (eV/atom):     -4.2687
# Relative energy1 (eV/atom):       0.0883
# Relative energy2 (eV/atom):       0.3254
# Volume of the unit cell (A^3):    231.17
# Density (g/cm^3):                 3.5328
# Tool:                             VASP
# Pseudopotential:                  PAW
# Note:                             ENCUT=400eV, k-spacing_relax=0.20/Angstrom, k-spacing_bandgap=0.15/Angstrom
# Created by:                       C.Kim, T.D.Huan, S.Krishnan, R. Ramprasad