data_1
_audit_creation_method   'Generated by vasp2cif'
_cell_length_a    6.12596499897
_cell_length_b    4.42719666114
_cell_length_c    8.55384729791
_cell_angle_alpha    88.12567853
_cell_angle_beta    83.1670366368
_cell_angle_gamma    82.5713530005

_symmetry_space_group_name_H-M    'P 1'
loop_
_atom_site_label
_atom_site_type_symbol
_atom_site_fract_x
_atom_site_fract_y
_atom_site_fract_z
_atom_site_occupancy
Br1   Br   0.969881564976963   0.111037804757090   0.789636021556067   1.0
Br2   Br   0.459401898584881   0.740025777345870   0.061708991442807   1.0
Br3   Br   0.892673773323209   0.086817495186419   0.312445614599041   1.0
H4   H   0.297187782380788   0.277828779163612   0.545566142152818   1.0
H5   H   0.634402438655541   0.468711027892378   0.420485807745587   1.0
H6   H   0.498801526161655   0.808622931272167   0.397034246758470   1.0
H7   H   0.557409374015541   0.479985334283139   0.703047193270085   1.0
H8   H   0.694233022350964   0.795787324921029   0.627670031460087   1.0
H9   H   0.401069002016527   0.846368473815964   0.687792679113013   1.0
H10   H   0.287852227112697   0.404789113743277   0.344287276505296   1.0
H11   H   0.150023966082955   0.638106331506200   0.502412432775157   1.0
C12   C   0.541422567337685   0.692306221004228   0.634812756079786   1.0
C13   C   0.292653965418054   0.472838020773570   0.464668296598066   1.0
Pb14   Pb   0.951605796406943   0.599371895459645   0.037993807307115   1.0
N15   N   0.500791095175611   0.618603468875267   0.470188702636623   1.0




# HOIP entry ID:                    1161
# Khazana ID:                       3011
# Organic cation source:            B.Saparov et al., Chem. Rev. 116, 4558 (2016)
# Label:                            Dimethylammonium Lead Bromide
# Material class:                   Hybrid organic-inorganic perovskite ( MC_ino )
# Geometry class:                   Bulk crystalline materials ( GC_cry )
# Organic cation chemical formula:  (CH3)2NH2
# Number of atom types:             5
# Total number of atoms:            15
# Atom types:                       C H N  Pb Br
# Number of each atom:              2 8 1  1 3
# Bandgap, HSE06 (eV):              3.982
# Bandgap, GGA (eV):                2.9849
# Kpoint for VBM:                   0.25, 0, 0.4
# Kpoint for CBM:                   0.4167, 0, 0.4
# Dielectric constant, electronic:  3.7969
# Dielectric constant, ionic:       7.636
# Dielectric constant, total:       11.4329
# Refractive index:                 1.9486
# Atomization energy (eV/atom):     -4.2645
# Relative energy1 (eV/atom):       0.0925
# Relative energy2 (eV/atom):       0.3296
# Volume of the unit cell (A^3):    228.37
# Density (g/cm^3):                 3.5761
# Tool:                             VASP
# Pseudopotential:                  PAW
# Note:                             ENCUT=400eV, k-spacing_relax=0.20/Angstrom, k-spacing_bandgap=0.15/Angstrom
# Created by:                       C.Kim, T.D.Huan, S.Krishnan, R. Ramprasad