data_1
_audit_creation_method   'Generated by vasp2cif'
_cell_length_a    6.06197787166
_cell_length_b    4.42768817521
_cell_length_c    8.37292454601
_cell_angle_alpha    82.1520853674
_cell_angle_beta    86.7747436966
_cell_angle_gamma    85.3623373888

_symmetry_space_group_name_H-M    'P 1'
loop_
_atom_site_label
_atom_site_type_symbol
_atom_site_fract_x
_atom_site_fract_y
_atom_site_fract_z
_atom_site_occupancy
Br1   Br   0.943343235501274   0.150339343406358   0.784991631696407   1.0
Br2   Br   0.440649262495327   0.761684783353857   0.060590899268973   1.0
Br3   Br   0.897539757977896   0.011041750572915   0.324790549016342   1.0
H4   H   0.295782430680674   0.156540455660483   0.536600068617410   1.0
H5   H   0.666898904205041   0.358302219319363   0.504556042448698   1.0
H6   H   0.559024834203804   0.684588619833946   0.414802070179604   1.0
H7   H   0.467498987366803   0.401442582324350   0.753507915096471   1.0
H8   H   0.593578515896532   0.750321457855982   0.688338932056602   1.0
H9   H   0.303639934368839   0.724073177126868   0.661504372943234   1.0
H10   H   0.396246484768937   0.249196143231309   0.330145577632116   1.0
H11   H   0.197124849679142   0.501840315153743   0.421289079075805   1.0
C12   C   0.467442753293518   0.603395358638380   0.663463873500703   1.0
C13   C   0.339137265221268   0.337012588822020   0.441614356058246   1.0
Pb14   Pb   0.933829552321328   0.593618226605422   0.045206583355885   1.0
N15   N   0.522486927574214   0.500654831528529   0.499709193172521   1.0




# HOIP entry ID:                    1163
# Khazana ID:                       3013
# Organic cation source:            B.Saparov et al., Chem. Rev. 116, 4558 (2016)
# Label:                            Dimethylammonium Lead Bromide
# Material class:                   Hybrid organic-inorganic perovskite ( MC_ino )
# Geometry class:                   Bulk crystalline materials ( GC_cry )
# Organic cation chemical formula:  (CH3)2NH2
# Number of atom types:             5
# Total number of atoms:            15
# Atom types:                       C H N  Pb Br
# Number of each atom:              2 8 1  1 3
# Bandgap, HSE06 (eV):              3.9601
# Bandgap, GGA (eV):                2.8973
# Kpoint for VBM:                   0.25, 0, 0.4
# Kpoint for CBM:                   -0.4167, 0, 0.4
# Dielectric constant, electronic:  3.9414
# Dielectric constant, ionic:       9.513
# Dielectric constant, total:       13.4543
# Refractive index:                 1.9853
# Atomization energy (eV/atom):     -4.2642
# Relative energy1 (eV/atom):       0.0927
# Relative energy2 (eV/atom):       0.3299
# Volume of the unit cell (A^3):    221.67
# Density (g/cm^3):                 3.6842
# Tool:                             VASP
# Pseudopotential:                  PAW
# Note:                             ENCUT=400eV, k-spacing_relax=0.20/Angstrom, k-spacing_bandgap=0.15/Angstrom
# Created by:                       C.Kim, T.D.Huan, S.Krishnan, R. Ramprasad