data_1
_audit_creation_method   'Generated by vasp2cif'
_cell_length_a    6.28018816868
_cell_length_b    6.20560689812
_cell_length_c    6.20149950401
_cell_angle_alpha    88.5191257861
_cell_angle_beta    98.8579562099
_cell_angle_gamma    81.9411061022

_symmetry_space_group_name_H-M    'P 1'
loop_
_atom_site_label
_atom_site_type_symbol
_atom_site_fract_x
_atom_site_fract_y
_atom_site_fract_z
_atom_site_occupancy
C1   C   0.359190046081892   0.408756311327266   0.596986825235518   1.0
C2   C   0.515219849923831   0.519150943962671   0.489717414875265   1.0
H3   H   0.698225572804191   0.502205396258148   0.239720927659512   1.0
H4   H   0.685752773270963   0.780438258575764   0.506542457855097   1.0
H5   H   0.347672790999063   0.246724528590626   0.536862040894043   1.0
H6   H   0.197430369893922   0.506527681599600   0.563447133437130   1.0
H7   H   0.410382803678935   0.395422804706982   0.774004068436540   1.0
H8   H   0.522741878911283   0.760588427909731   0.706056619031962   1.0
H9   H   0.542468883701119   0.294560808467203   0.258156950152731   1.0
Br10   Br   0.002590490315178   0.980210884307212   0.522132921648300   1.0
Br11   Br   0.006256916499680   0.482940014517027   0.024705224967143   1.0
Br12   Br   0.507331276078027   0.963126189307623   0.044600816907604   1.0
N13   N   0.588247592805956   0.435766222354857   0.316131616676259   1.0
N14   N   0.575225708722186   0.701329006264658   0.568966284574159   1.0
Pb15   Pb   0.026203046313839   0.992532521850599   0.011848697648752   1.0




# HOIP entry ID:                    1164
# Khazana ID:                       3014
# Organic cation source:            C.C.Stoumpos et al., J. Am. Chem. Soc. 137, 6804 (2015)
# Label:                            Acetamidinium Lead Bromide
# Material class:                   Hybrid organic-inorganic perovskite ( MC_ino )
# Geometry class:                   Bulk crystalline materials ( GC_cry )
# Organic cation chemical formula:  CH3C(NH2)2
# Number of atom types:             5
# Total number of atoms:            15
# Atom types:                       C H N  Pb Br
# Number of each atom:              2 7 2  1 3
# Bandgap, HSE06 (eV):              2.8325
# Bandgap, GGA (eV):                1.8768
# Kpoint for VBM:                   0.5, 0.5, 0.5
# Kpoint for CBM:                   0.5, 0.5, 0.5
# Dielectric constant, electronic:  4.2243
# Dielectric constant, ionic:       18.6278
# Dielectric constant, total:       22.8521
# Refractive index:                 2.0553
# Atomization energy (eV/atom):     -4.576
# Relative energy1 (eV/atom):       0.2071
# Relative energy2 (eV/atom):       0.4442
# Volume of the unit cell (A^3):    236.17
# Density (g/cm^3):                 3.5494
# Tool:                             VASP
# Pseudopotential:                  PAW
# Note:                             ENCUT=400eV, k-spacing_relax=0.20/Angstrom, k-spacing_bandgap=0.15/Angstrom
# Created by:                       C.Kim, T.D.Huan, S.Krishnan, R. Ramprasad