data_1
_audit_creation_method   'Generated by vasp2cif'
_cell_length_a    6.28368384221
_cell_length_b    6.21977773602
_cell_length_c    6.22238492471
_cell_angle_alpha    91.0594187445
_cell_angle_beta    98.8719560717
_cell_angle_gamma    98.8338051682

_symmetry_space_group_name_H-M    'P 1'
loop_
_atom_site_label
_atom_site_type_symbol
_atom_site_fract_x
_atom_site_fract_y
_atom_site_fract_z
_atom_site_occupancy
C1   C   0.643472534859562   0.504994992189665   0.521862497516395   1.0
C2   C   0.495451802814955   0.618482792768120   0.633935675772996   1.0
H3   H   0.318169553955300   0.599070539101305   0.887680487559372   1.0
H4   H   0.318214520687199   0.872379530389239   0.614027558693920   1.0
H5   H   0.761237480352712   0.439294558806097   0.639969563858074   1.0
H6   H   0.731342614769503   0.614377514913507   0.418973531631963   1.0
H7   H   0.545688747924736   0.368968264147469   0.418919128322450   1.0
H8   H   0.479659635414052   0.855729259035115   0.413660659409217   1.0
H9   H   0.479103998335105   0.398193877247614   0.871306315852195   1.0
Br10   Br   0.006500842261850   0.079178697147199   0.591443000176653   1.0
Br11   Br   0.008931523104629   0.575110145391747   0.097414073140087   1.0
Br12   Br   0.499801297136919   0.057225962958256   0.072309830803171   1.0
N13   N   0.429538986517088   0.536735210566214   0.811861964136853   1.0
N14   N   0.429590174215178   0.796321722187301   0.551857207049508   1.0
Pb15   Pb   0.980366287651194   0.087986933151150   0.103788506077095   1.0




# HOIP entry ID:                    1165
# Khazana ID:                       3015
# Organic cation source:            C.C.Stoumpos et al., J. Am. Chem. Soc. 137, 6804 (2015)
# Label:                            Acetamidinium Lead Bromide
# Material class:                   Hybrid organic-inorganic perovskite ( MC_ino )
# Geometry class:                   Bulk crystalline materials ( GC_cry )
# Organic cation chemical formula:  CH3C(NH2)2
# Number of atom types:             5
# Total number of atoms:            15
# Atom types:                       C H N  Pb Br
# Number of each atom:              2 7 2  1 3
# Bandgap, HSE06 (eV):              2.8888
# Bandgap, GGA (eV):                1.9555
# Kpoint for VBM:                   0.5, 0.5, 0.5
# Kpoint for CBM:                   0.5, 0.5, 0.5
# Dielectric constant, electronic:  4.2007
# Dielectric constant, ionic:       16.3654
# Dielectric constant, total:       20.5661
# Refractive index:                 2.0496
# Atomization energy (eV/atom):     -4.5754
# Relative energy1 (eV/atom):       0.2076
# Relative energy2 (eV/atom):       0.4447
# Volume of the unit cell (A^3):    237.21
# Density (g/cm^3):                 3.5339
# Tool:                             VASP
# Pseudopotential:                  PAW
# Note:                             ENCUT=400eV, k-spacing_relax=0.20/Angstrom, k-spacing_bandgap=0.15/Angstrom
# Created by:                       C.Kim, T.D.Huan, S.Krishnan, R. Ramprasad