data_1
_audit_creation_method   'Generated by vasp2cif'
_cell_length_a    6.2274550409
_cell_length_b    6.17953903242
_cell_length_c    6.25091988411
_cell_angle_alpha    84.4947909365
_cell_angle_beta    100.630766402
_cell_angle_gamma    89.1956622912

_symmetry_space_group_name_H-M    'P 1'
loop_
_atom_site_label
_atom_site_type_symbol
_atom_site_fract_x
_atom_site_fract_y
_atom_site_fract_z
_atom_site_occupancy
C1   C   0.587099778601067   0.479452852171683   0.420371299936929   1.0
C2   C   0.510985093881389   0.630569831110178   0.566127286122903   1.0
H3   H   0.301873413431689   0.664208301674599   0.782409237945684   1.0
H4   H   0.565257002151183   0.923748850581440   0.691633813680782   1.0
H5   H   0.583522325190449   0.562852255331814   0.257329087797444   1.0
H6   H   0.485920159486258   0.337368005750192   0.406932695516951   1.0
H7   H   0.756305880696830   0.425328656340516   0.488200582457839   1.0
H8   H   0.720961192491306   0.866473533340423   0.499132358153768   1.0
H9   H   0.289587555256496   0.422163651674764   0.662331569502034   1.0
Br10   Br   0.078890421200078   0.087638638961948   0.573077455752972   1.0
Br11   Br   0.030194598923645   0.592835995071873   0.066323806841416   1.0
Br12   Br   0.569328736842090   0.076867175681263   0.039061583231115   1.0
N13   N   0.360098022570720   0.568333976022539   0.681031550663158   1.0
N14   N   0.598024668192073   0.824280452475327   0.579526130215345   1.0
Pb15   Pb   0.050651151084656   0.098127823811419   0.086371542181727   1.0




# HOIP entry ID:                    1166
# Khazana ID:                       3016
# Organic cation source:            C.C.Stoumpos et al., J. Am. Chem. Soc. 137, 6804 (2015)
# Label:                            Acetamidinium Lead Bromide
# Material class:                   Hybrid organic-inorganic perovskite ( MC_ino )
# Geometry class:                   Bulk crystalline materials ( GC_cry )
# Organic cation chemical formula:  CH3C(NH2)2
# Number of atom types:             5
# Total number of atoms:            15
# Atom types:                       C H N  Pb Br
# Number of each atom:              2 7 2  1 3
# Bandgap, HSE06 (eV):              2.8937
# Bandgap, GGA (eV):                1.915
# Kpoint for VBM:                   0.5, 0.5, 0.5
# Kpoint for CBM:                   0.5, 0.5, 0.5
# Dielectric constant, electronic:  4.2367
# Dielectric constant, ionic:       19.9258
# Dielectric constant, total:       24.1625
# Refractive index:                 2.0583
# Atomization energy (eV/atom):     -4.5746
# Relative energy1 (eV/atom):       0.2085
# Relative energy2 (eV/atom):       0.4456
# Volume of the unit cell (A^3):    235.21
# Density (g/cm^3):                 3.5639
# Tool:                             VASP
# Pseudopotential:                  PAW
# Note:                             ENCUT=400eV, k-spacing_relax=0.20/Angstrom, k-spacing_bandgap=0.15/Angstrom
# Created by:                       C.Kim, T.D.Huan, S.Krishnan, R. Ramprasad