data_1
_audit_creation_method   'Generated by vasp2cif'
_cell_length_a    6.24876261468
_cell_length_b    4.31693292241
_cell_length_c    8.6460989996
_cell_angle_alpha    89.9897245648
_cell_angle_beta    95.2578241869
_cell_angle_gamma    101.983823401

_symmetry_space_group_name_H-M    'P 1'
loop_
_atom_site_label
_atom_site_type_symbol
_atom_site_fract_x
_atom_site_fract_y
_atom_site_fract_z
_atom_site_occupancy
C1   C   0.412743271645517   0.871805678198186   0.607268742073479   1.0
C2   C   0.542224177949123   0.820465175135489   0.475699293380394   1.0
H3   H   0.385713597320596   0.080533842946401   0.325580680229208   1.0
H4   H   0.581613190626150   0.910571101445392   0.245318632242565   1.0
H5   H   0.313103933216198   0.644742695481050   0.638504103323321   1.0
H6   H   0.522966440623911   0.966076331913676   0.709768475828412   1.0
H7   H   0.303461495005209   0.032581059165636   0.575024163068655   1.0
H8   H   0.786017648444911   0.601905726251438   0.411547089894896   1.0
H9   H   0.729997255928758   0.558050758847479   0.603120141988406   1.0
Br10   Br   0.558267381512685   0.541272349128647   0.010735606356789   1.0
Br11   Br   0.044554741225887   0.263909169940831   0.285348457933289   1.0
Br12   Br   0.985536724362575   0.234828560041592   0.763688310469909   1.0
N13   N   0.505625442315683   0.952059051421124   0.340443694781726   1.0
N14   N   0.690767757221131   0.640033434600603   0.496244060531445   1.0
Pb15   Pb   0.038656942601705   0.735465065482444   0.015138547897578   1.0




# HOIP entry ID:                    1167
# Khazana ID:                       3017
# Organic cation source:            C.C.Stoumpos et al., J. Am. Chem. Soc. 137, 6804 (2015)
# Label:                            Acetamidinium Lead Bromide
# Material class:                   Hybrid organic-inorganic perovskite ( MC_ino )
# Geometry class:                   Bulk crystalline materials ( GC_cry )
# Organic cation chemical formula:  CH3C(NH2)2
# Number of atom types:             5
# Total number of atoms:            15
# Atom types:                       C H N  Pb Br
# Number of each atom:              2 7 2  1 3
# Bandgap, HSE06 (eV):              4.0198
# Bandgap, GGA (eV):                2.9878
# Kpoint for VBM:                   0, 0.0556, 0.5
# Kpoint for CBM:                   0.5, 0.0556, 0.5
# Dielectric constant, electronic:  3.8549
# Dielectric constant, ionic:       5.9166
# Dielectric constant, total:       9.7715
# Refractive index:                 1.9634
# Atomization energy (eV/atom):     -4.5761
# Relative energy1 (eV/atom):       0.2069
# Relative energy2 (eV/atom):       0.444
# Volume of the unit cell (A^3):    227.15
# Density (g/cm^3):                 3.6904
# Tool:                             VASP
# Pseudopotential:                  PAW
# Note:                             ENCUT=400eV, k-spacing_relax=0.20/Angstrom, k-spacing_bandgap=0.15/Angstrom
# Created by:                       C.Kim, T.D.Huan, S.Krishnan, R. Ramprasad