data_1
_audit_creation_method   'Generated by vasp2cif'
_cell_length_a    6.15256494318
_cell_length_b    4.37704103363
_cell_length_c    9.26525911612
_cell_angle_alpha    109.178799424
_cell_angle_beta    82.2138734496
_cell_angle_gamma    92.3630492243

_symmetry_space_group_name_H-M    'P 1'
loop_
_atom_site_label
_atom_site_type_symbol
_atom_site_fract_x
_atom_site_fract_y
_atom_site_fract_z
_atom_site_occupancy
C1   C   0.489685318411546   0.531632715981580   0.641748607900354   1.0
C2   C   0.473877133328585   0.312854903496131   0.481547494653860   1.0
H3   H   0.329209741621035   0.243262751262399   0.285875558001116   1.0
H4   H   0.228487583734733   0.567191430499911   0.446091922643028   1.0
H5   H   0.471224101335622   0.393034515643329   0.721326230468080   1.0
H6   H   0.652082594479879   0.643787382509885   0.646498921276610   1.0
H7   H   0.365587789074247   0.721606634477773   0.678033162758226   1.0
H8   H   0.604635295860987   0.903724824928425   0.314156005781875   1.0
H9   H   0.722257513766728   0.024942697473307   0.485254333926363   1.0
Br10   Br   0.470219547630037   0.784918552619295   0.036512758070458   1.0
Br11   Br   0.938312705860483   0.444282777259040   0.205782316858198   1.0
Br12   Br   0.986167217195074   0.087869175610535   0.691761269391534   1.0
N13   N   0.335989589610783   0.380279671165461   0.398065364265321   1.0
N14   N   0.602062344667893   0.052907521126556   0.424996882798389   1.0
Pb15   Pb   0.959451523422317   0.773844445946331   0.960989171206570   1.0




# HOIP entry ID:                    1168
# Khazana ID:                       3018
# Organic cation source:            C.C.Stoumpos et al., J. Am. Chem. Soc. 137, 6804 (2015)
# Label:                            Acetamidinium Lead Bromide
# Material class:                   Hybrid organic-inorganic perovskite ( MC_ino )
# Geometry class:                   Bulk crystalline materials ( GC_cry )
# Organic cation chemical formula:  CH3C(NH2)2
# Number of atom types:             5
# Total number of atoms:            15
# Atom types:                       C H N  Pb Br
# Number of each atom:              2 7 2  1 3
# Bandgap, HSE06 (eV):              4.0373
# Bandgap, GGA (eV):                3.0409
# Kpoint for VBM:                   -0.3333, 0.1667, 0.3
# Kpoint for CBM:                   -0.4167, 0, 0.4
# Dielectric constant, electronic:  3.816
# Dielectric constant, ionic:       7.4373
# Dielectric constant, total:       11.2533
# Refractive index:                 1.9535
# Atomization energy (eV/atom):     -4.5733
# Relative energy1 (eV/atom):       0.2097
# Relative energy2 (eV/atom):       0.4469
# Volume of the unit cell (A^3):    233.49
# Density (g/cm^3):                 3.5902
# Tool:                             VASP
# Pseudopotential:                  PAW
# Note:                             ENCUT=400eV, k-spacing_relax=0.20/Angstrom, k-spacing_bandgap=0.15/Angstrom
# Created by:                       C.Kim, T.D.Huan, S.Krishnan, R. Ramprasad