data_1
_audit_creation_method   'Generated by vasp2cif'
_cell_length_a    8.68430919801
_cell_length_b    4.0199882039
_cell_length_c    6.71045402499
_cell_angle_alpha    87.9233305051
_cell_angle_beta    88.0942777723
_cell_angle_gamma    88.5289246928

_symmetry_space_group_name_H-M    'P 1'
loop_
_atom_site_label
_atom_site_type_symbol
_atom_site_fract_x
_atom_site_fract_y
_atom_site_fract_z
_atom_site_occupancy
C1   C   0.612371341735987   0.938127971873463   0.542594466394867   1.0
C2   C   0.490433531636086   0.754686351448193   0.441581789839226   1.0
H3   H   0.347878100569027   0.740634269450268   0.688359721558200   1.0
H4   H   0.279309806887071   0.528005284702353   0.491446460553625   1.0
H5   H   0.693195658633329   0.756293409951056   0.610632918084221   1.0
H6   H   0.677866463289284   0.094843165701391   0.435894391306590   1.0
H7   H   0.562045848421853   0.087515846624271   0.661765535405216   1.0
H8   H   0.437775129500643   0.536941735168568   0.178283990055299   1.0
H9   H   0.606360585670238   0.759595958199377   0.172979816373321   1.0
Br10   Br   0.027161121680116   0.212331115785567   0.465906856434543   1.0
Br11   Br   0.282992817214549   0.199724169934939   0.963183950570190   1.0
Br12   Br   0.774536974439734   0.232417066077026   0.976475076291756   1.0
N13   N   0.364608911102238   0.666492448941888   0.545799436083882   1.0
N14   N   0.514042800621866   0.671282252060927   0.253732681617038   1.0
Pb15   Pb   0.020680908598045   0.717798954080770   0.113472909431920   1.0




# HOIP entry ID:                    1169
# Khazana ID:                       3019
# Organic cation source:            C.C.Stoumpos et al., J. Am. Chem. Soc. 137, 6804 (2015)
# Label:                            Acetamidinium Lead Bromide
# Material class:                   Hybrid organic-inorganic perovskite ( MC_ino )
# Geometry class:                   Bulk crystalline materials ( GC_cry )
# Organic cation chemical formula:  CH3C(NH2)2
# Number of atom types:             5
# Total number of atoms:            15
# Atom types:                       C H N  Pb Br
# Number of each atom:              2 7 2  1 3
# Bandgap, HSE06 (eV):              3.9205
# Bandgap, GGA (eV):                2.9395
# Kpoint for VBM:                   0.5, 0.1, 0
# Kpoint for CBM:                   0, 0, 0.5
# Dielectric constant, electronic:  3.6804
# Dielectric constant, ionic:       10.3136
# Dielectric constant, total:       13.994
# Refractive index:                 1.9184
# Atomization energy (eV/atom):     -4.5627
# Relative energy1 (eV/atom):       0.2203
# Relative energy2 (eV/atom):       0.4575
# Volume of the unit cell (A^3):    233.91
# Density (g/cm^3):                 3.5837
# Tool:                             VASP
# Pseudopotential:                  PAW
# Note:                             ENCUT=400eV, k-spacing_relax=0.20/Angstrom, k-spacing_bandgap=0.15/Angstrom
# Created by:                       C.Kim, T.D.Huan, S.Krishnan, R. Ramprasad