data_1
_audit_creation_method   'Generated by vasp2cif'
_cell_length_a    6.07199496418
_cell_length_b    5.97168314379
_cell_length_c    6.09937476685
_cell_angle_alpha    89.9990126475
_cell_angle_beta    91.5356890259
_cell_angle_gamma    89.9084086044

_symmetry_space_group_name_H-M    'P 1'
loop_
_atom_site_label
_atom_site_type_symbol
_atom_site_fract_x
_atom_site_fract_y
_atom_site_fract_z
_atom_site_occupancy
Br1   Br   0.404251630531357   0.998566693975856   0.063622780230159   1.0
Br2   Br   0.866231503357028   0.999815890695955   0.510996251308532   1.0
Br3   Br   0.857585201658012   0.499137035058086   0.963449700543790   1.0
H4   H   0.543706829213726   0.500014634942275   0.272070603794454   1.0
H5   H   0.644694890312138   0.361272646282598   0.488632984486657   1.0
H6   H   0.640669859384399   0.642133690739570   0.488035536052290   1.0
H7   H   0.242878751658614   0.345144430902131   0.487476285132325   1.0
H8   H   0.349499486363927   0.498584162840688   0.719450957742764   1.0
H9   H   0.237556136933862   0.646018703761839   0.485854058631041   1.0
C10   C   0.327003225985663   0.497295013682818   0.541627809025141   1.0
Pb11   Pb   0.920024373504014   0.999149057841602   0.007665578881925   1.0
N12   N   0.552788111097170   0.500428039276576   0.441317454169975   1.0




# HOIP entry ID:                    1170
# Khazana ID:                       3020
# Organic cation source:            T.D.Huan et al., Phys. Rev. B 93,094105(2016)
# Label:                            Methylammonium Lead Bromide
# Material class:                   Hybrid organic-inorganic perovskite ( MC_ino )
# Geometry class:                   Bulk crystalline materials ( GC_cry )
# Organic cation chemical formula:  CH3NH3
# Number of atom types:             5
# Total number of atoms:            12
# Atom types:                       C H N  Pb Br
# Number of each atom:              1 6 1  1 3
# Bandgap, HSE06 (eV):              2.9543
# Bandgap, GGA (eV):                2.0862
# Kpoint for VBM:                   0.5, 0.5, 0.5
# Kpoint for CBM:                   0.4474, 0.4474, 0.4474
# Dielectric constant, electronic:  4.1353
# Dielectric constant, ionic:       9.4254
# Dielectric constant, total:       13.5607
# Refractive index:                 2.0335
# Atomization energy (eV/atom):     -4.0787
# Relative energy1 (eV/atom):       0.2003
# Relative energy2 (eV/atom):       0.4967
# Volume of the unit cell (A^3):    221.08
# Density (g/cm^3):                 3.5887
# Tool:                             VASP
# Pseudopotential:                  PAW
# Note:                             ENCUT=400eV, k-spacing_relax=0.20/Angstrom, k-spacing_bandgap=0.15/Angstrom
# Created by:                       C.Kim, T.D.Huan, S.Krishnan, R. Ramprasad