data_1
_audit_creation_method   'Generated by vasp2cif'
_cell_length_a    6.05015108181
_cell_length_b    6.03480245442
_cell_length_c    6.10254273474
_cell_angle_alpha    86.9573524446
_cell_angle_beta    85.9140599613
_cell_angle_gamma    92.9568487986

_symmetry_space_group_name_H-M    'P 1'
loop_
_atom_site_label
_atom_site_type_symbol
_atom_site_fract_x
_atom_site_fract_y
_atom_site_fract_z
_atom_site_occupancy
Br1   Br   0.029427897223520   0.037984184713970   0.595537468252211   1.0
Br2   Br   0.490099604493551   0.979401476235630   0.124762605788320   1.0
Br3   Br   0.957051485221911   0.505318755492233   0.125143971400760   1.0
H4   H   0.308481322748719   0.352922332977030   0.477580319692350   1.0
H5   H   0.560265860250865   0.408034382352234   0.346302690033262   1.0
H6   H   0.386086232801517   0.610195001317265   0.368808208642683   1.0
H7   H   0.592915041331437   0.378338549909607   0.742372453933129   1.0
H8   H   0.669454803380596   0.654203114310150   0.629606679289317   1.0
H9   H   0.401118642913524   0.594135597924456   0.770504886599575   1.0
C10   C   0.533484266888664   0.529157745335340   0.665954322836001   1.0
Pb11   Pb   0.989712956584086   0.005527692714729   0.083613118881253   1.0
N12   N   0.439891886161632   0.470931166717470   0.450823274651114   1.0




# HOIP entry ID:                    1171
# Khazana ID:                       3021
# Organic cation source:            T.D.Huan et al., Phys. Rev. B 93,094105(2016)
# Label:                            Methylammonium Lead Bromide
# Material class:                   Hybrid organic-inorganic perovskite ( MC_ino )
# Geometry class:                   Bulk crystalline materials ( GC_cry )
# Organic cation chemical formula:  CH3NH3
# Number of atom types:             5
# Total number of atoms:            12
# Atom types:                       C H N  Pb Br
# Number of each atom:              1 6 1  1 3
# Bandgap, HSE06 (eV):              2.8957
# Bandgap, GGA (eV):                2.0712
# Kpoint for VBM:                   0.5, 0.5, 0.5
# Kpoint for CBM:                   0.5, 0.5, 0.4474
# Dielectric constant, electronic:  4.1561
# Dielectric constant, ionic:       12.4938
# Dielectric constant, total:       16.65
# Refractive index:                 2.0387
# Atomization energy (eV/atom):     -4.0784
# Relative energy1 (eV/atom):       0.2005
# Relative energy2 (eV/atom):       0.4969
# Volume of the unit cell (A^3):    221.59
# Density (g/cm^3):                 3.5804
# Tool:                             VASP
# Pseudopotential:                  PAW
# Note:                             ENCUT=400eV, k-spacing_relax=0.20/Angstrom, k-spacing_bandgap=0.15/Angstrom
# Created by:                       C.Kim, T.D.Huan, S.Krishnan, R. Ramprasad