data_1
_audit_creation_method   'Generated by vasp2cif'
_cell_length_a    6.19125513704
_cell_length_b    4.44576368286
_cell_length_c    7.86935631454
_cell_angle_alpha    100.841861887
_cell_angle_beta    82.7777024972
_cell_angle_gamma    94.1039843688

_symmetry_space_group_name_H-M    'P 1'
loop_
_atom_site_label
_atom_site_type_symbol
_atom_site_fract_x
_atom_site_fract_y
_atom_site_fract_z
_atom_site_occupancy
Br1   Br   0.013472602310415   0.604708019352266   0.727612707828698   1.0
Br2   Br   0.487724282505731   0.226088518274608   0.083557044555079   1.0
Br3   Br   0.962505739432885   0.786026350734069   0.290003248157397   1.0
H4   H   0.307068055925384   0.746955753132937   0.490996474727048   1.0
H5   H   0.567670559422595   0.715580249926347   0.394334277910851   1.0
H6   H   0.409113053692309   0.956634770121227   0.340873337847164   1.0
H7   H   0.560926959248732   0.001988142541798   0.692816069171826   1.0
H8   H   0.668188323118613   0.229494312577785   0.534860373397549   1.0
H9   H   0.391120279403367   0.266713716863315   0.635515341284325   1.0
C10   C   0.522566445876365   0.110999056667602   0.588051722645055   1.0
Pb11   Pb   0.991448014434582   0.196397001401692   0.012501859172488   1.0
N12   N   0.445545684629067   0.864914108406424   0.445197543302562   1.0




# HOIP entry ID:                    1172
# Khazana ID:                       3022
# Organic cation source:            T.D.Huan et al., Phys. Rev. B 93,094105(2016)
# Label:                            Methylammonium Lead Bromide
# Material class:                   Hybrid organic-inorganic perovskite ( MC_ino )
# Geometry class:                   Bulk crystalline materials ( GC_cry )
# Organic cation chemical formula:  CH3NH3
# Number of atom types:             5
# Total number of atoms:            12
# Atom types:                       C H N  Pb Br
# Number of each atom:              1 6 1  1 3
# Bandgap, HSE06 (eV):              3.6199
# Bandgap, GGA (eV):                2.6947
# Kpoint for VBM:                   0.5, 0.0556, 0.5
# Kpoint for CBM:                   0.5, 0.5, 0.1
# Dielectric constant, electronic:  3.9412
# Dielectric constant, ionic:       15.1132
# Dielectric constant, total:       19.0544
# Refractive index:                 1.9852
# Atomization energy (eV/atom):     -4.0771
# Relative energy1 (eV/atom):       0.2019
# Relative energy2 (eV/atom):       0.4983
# Volume of the unit cell (A^3):    210.79
# Density (g/cm^3):                 3.7639
# Tool:                             VASP
# Pseudopotential:                  PAW
# Note:                             ENCUT=400eV, k-spacing_relax=0.20/Angstrom, k-spacing_bandgap=0.15/Angstrom
# Created by:                       C.Kim, T.D.Huan, S.Krishnan, R. Ramprasad