data_1
_audit_creation_method   'Generated by vasp2cif'
_cell_length_a    5.99603146751
_cell_length_b    4.33794258061
_cell_length_c    9.19242200995
_cell_angle_alpha    117.952746044
_cell_angle_beta    84.0116229772
_cell_angle_gamma    93.8000807005

_symmetry_space_group_name_H-M    'P 1'
loop_
_atom_site_label
_atom_site_type_symbol
_atom_site_fract_x
_atom_site_fract_y
_atom_site_fract_z
_atom_site_occupancy
Br1   Br   0.955007341206656   0.844359117823751   0.241719738826063   1.0
Br2   Br   0.502215236426933   0.934599240081958   0.934045511091119   1.0
Br3   Br   0.019754600675623   0.297331958910814   0.689113192997936   1.0
H4   H   0.716441290175941   0.339831945261583   0.448512088091254   1.0
H5   H   0.575272825985100   0.613484173983646   0.629222594687253   1.0
H6   H   0.745847637399592   0.768564065790108   0.523596076264051   1.0
H7   H   0.321817606461531   0.355390691678185   0.404121252424177   1.0
H8   H   0.350926625133380   0.817320585237459   0.485924363497771   1.0
H9   H   0.503970899478111   0.534400034312916   0.294238000706025   1.0
C10   C   0.436505985779754   0.569680250489004   0.415586461415832   1.0
Pb11   Pb   0.000850372999296   0.077873023158193   0.964687551513287   1.0
N12   N   0.629769578278028   0.571294913272429   0.510233168485285   1.0




# HOIP entry ID:                    1173
# Khazana ID:                       3023
# Organic cation source:            T.D.Huan et al., Phys. Rev. B 93,094105(2016)
# Label:                            Methylammonium Lead Bromide
# Material class:                   Hybrid organic-inorganic perovskite ( MC_ino )
# Geometry class:                   Bulk crystalline materials ( GC_cry )
# Organic cation chemical formula:  CH3NH3
# Number of atom types:             5
# Total number of atoms:            12
# Atom types:                       C H N  Pb Br
# Number of each atom:              1 6 1  1 3
# Bandgap, HSE06 (eV):              3.7363
# Bandgap, GGA (eV):                2.799
# Kpoint for VBM:                   0.5, 0.1, 0.3333
# Kpoint for CBM:                   0.5, 0, 0.5
# Dielectric constant, electronic:  3.978
# Dielectric constant, ionic:       8.6556
# Dielectric constant, total:       12.6335
# Refractive index:                 1.9945
# Atomization energy (eV/atom):     -4.0757
# Relative energy1 (eV/atom):       0.2032
# Relative energy2 (eV/atom):       0.4996
# Volume of the unit cell (A^3):    210.01
# Density (g/cm^3):                 3.7779
# Tool:                             VASP
# Pseudopotential:                  PAW
# Note:                             ENCUT=400eV, k-spacing_relax=0.20/Angstrom, k-spacing_bandgap=0.15/Angstrom
# Created by:                       C.Kim, T.D.Huan, S.Krishnan, R. Ramprasad