data_1
_audit_creation_method   'Generated by vasp2cif'
_cell_length_a    7.66628655356
_cell_length_b    4.63894426664
_cell_length_c    7.6367089111
_cell_angle_alpha    52.5588718232
_cell_angle_beta    99.3213731822
_cell_angle_gamma    105.396110489

_symmetry_space_group_name_H-M    'P 1'
loop_
_atom_site_label
_atom_site_type_symbol
_atom_site_fract_x
_atom_site_fract_y
_atom_site_fract_z
_atom_site_occupancy
Br1   Br   0.282631626102526   0.016705205933294   0.052181876714469   1.0
Br2   Br   0.926491058974216   0.858866575142088   0.552337928398018   1.0
Br3   Br   0.714038321890230   0.769049552364229   0.052266227891521   1.0
H4   H   0.621180615481027   0.489631260777221   0.551246374056700   1.0
H5   H   0.426174611478465   0.591913549921749   0.413067893545518   1.0
H6   H   0.428007934192517   0.311443635321277   0.693116343806341   1.0
H7   H   0.505517399266955   0.137869532970910   0.401477218717423   1.0
H8   H   0.510736048361595   0.840702834862124   0.698680889841928   1.0
H9   H   0.300752054073591   0.949338517457516   0.555473618114540   1.0
C10   C   0.446890526021212   0.048430538135392   0.551972896613191   1.0
Pb11   Pb   0.984684696006610   0.386503446939800   0.052433853170242   1.0
N12   N   0.483195108150969   0.384245350174493   0.552394879130136   1.0




# HOIP entry ID:                    1174
# Khazana ID:                       3024
# Organic cation source:            T.D.Huan et al., Phys. Rev. B 93,094105(2016)
# Label:                            Methylammonium Lead Bromide
# Material class:                   Hybrid organic-inorganic perovskite ( MC_ino )
# Geometry class:                   Bulk crystalline materials ( GC_cry )
# Organic cation chemical formula:  CH3NH3
# Number of atom types:             5
# Total number of atoms:            12
# Atom types:                       C H N  Pb Br
# Number of each atom:              1 6 1  1 3
# Bandgap, HSE06 (eV):              3.5767
# Bandgap, GGA (eV):                2.6459
# Kpoint for VBM:                   0.5, 0, 0.5
# Kpoint for CBM:                   0.5, 0, 0.375
# Dielectric constant, electronic:  4.0664
# Dielectric constant, ionic:       10.4003
# Dielectric constant, total:       14.4667
# Refractive index:                 2.0165
# Atomization energy (eV/atom):     -4.0771
# Relative energy1 (eV/atom):       0.2019
# Relative energy2 (eV/atom):       0.4983
# Volume of the unit cell (A^3):    207.9
# Density (g/cm^3):                 3.8162
# Tool:                             VASP
# Pseudopotential:                  PAW
# Note:                             ENCUT=400eV, k-spacing_relax=0.20/Angstrom, k-spacing_bandgap=0.15/Angstrom
# Created by:                       C.Kim, T.D.Huan, S.Krishnan, R. Ramprasad