data_1
_audit_creation_method   'Generated by vasp2cif'
_cell_length_a    6.15374911081
_cell_length_b    6.15009362486
_cell_length_c    6.14848862362
_cell_angle_alpha    96.937383785
_cell_angle_beta    96.0834158669
_cell_angle_gamma    95.8831683364

_symmetry_space_group_name_H-M    'P 1'
loop_
_atom_site_label
_atom_site_type_symbol
_atom_site_fract_x
_atom_site_fract_y
_atom_site_fract_z
_atom_site_occupancy
C1   C   0.301940048444443   0.292316189181712   0.337952642189705   1.0
H2   H   0.088688536300943   0.260951289499744   0.571945960747705   1.0
H3   H   0.083502628020994   0.523936196024152   0.319565026234812   1.0
H4   H   0.545513067101773   0.087937587599143   0.313264694556374   1.0
H5   H   0.542658018280129   0.280556200298094   0.129584016241822   1.0
H6   H   0.275110948232090   0.532054478517132   0.133040580490835   1.0
H7   H   0.285662109588017   0.079342204289020   0.571574602978465   1.0
Br8   Br   0.766686308095380   0.763237778849948   0.332594477785513   1.0
Br9   Br   0.771509150255255   0.286356359855539   0.806143002959288   1.0
Br10   Br   0.290892096775252   0.764821855413459   0.814730122831605   1.0
N11   N   0.216326435281076   0.201024103776888   0.501800207881395   1.0
N12   N   0.211496563841280   0.458549241335667   0.255331067907498   1.0
N13   N   0.475859801776693   0.215353658428988   0.254792183276358   1.0
Pb14   Pb   0.792254288006781   0.785752856930500   0.831741413918628   1.0




# HOIP entry ID:                    1175
# Khazana ID:                       3025
# Organic cation source:            B.Saparov et al., Chem. Rev. 116, 4558 (2016)
# Label:                            Guanidinium Lead Bromide
# Material class:                   Hybrid organic-inorganic perovskite ( MC_ino )
# Geometry class:                   Bulk crystalline materials ( GC_cry )
# Organic cation chemical formula:  C(NH2)3
# Number of atom types:             5
# Total number of atoms:            14
# Atom types:                       C H N  Pb Br
# Number of each atom:              1 6 3  1 3
# Bandgap, HSE06 (eV):              2.8637
# Bandgap, GGA (eV):                1.9713
# Kpoint for VBM:                   0.5, 0.5, 0.5
# Kpoint for CBM:                   0.5, 0.5, 0.5
# Dielectric constant, electronic:  4.3547
# Dielectric constant, ionic:       18.9528
# Dielectric constant, total:       23.3075
# Refractive index:                 2.0868
# Atomization energy (eV/atom):     -4.6117
# Relative energy1 (eV/atom):       0.4019
# Relative energy2 (eV/atom):       0.656
# Volume of the unit cell (A^3):    228.12
# Density (g/cm^3):                 3.6819
# Tool:                             VASP
# Pseudopotential:                  PAW
# Note:                             ENCUT=400eV, k-spacing_relax=0.20/Angstrom, k-spacing_bandgap=0.15/Angstrom
# Created by:                       C.Kim, T.D.Huan, S.Krishnan, R. Ramprasad