data_1
_audit_creation_method   'Generated by vasp2cif'
_cell_length_a    6.10595285505
_cell_length_b    6.10798431848
_cell_length_c    6.12383151016
_cell_angle_alpha    87.1667485088
_cell_angle_beta    93.7476872721
_cell_angle_gamma    85.1398910962

_symmetry_space_group_name_H-M    'P 1'
loop_
_atom_site_label
_atom_site_type_symbol
_atom_site_fract_x
_atom_site_fract_y
_atom_site_fract_z
_atom_site_occupancy
C1   C   0.754899114371675   0.285900839196266   0.634235692490371   1.0
H2   H   0.863603630521936   0.167780767767361   0.349787744062887   1.0
H3   H   0.011102405621656   0.454437270277154   0.535192474433828   1.0
H4   H   0.494394603760242   0.157438790849142   0.773381112612540   1.0
H5   H   0.610308159963054   0.363798387273157   0.916645174750478   1.0
H6   H   0.881120204127967   0.557225512904850   0.758721614186086   1.0
H7   H   0.666190371035640   0.019414785844845   0.468526159603570   1.0
Br8   Br   0.295807775885827   0.811948083810300   0.630154153541376   1.0
Br9   Br   0.218778625163651   0.281095150464381   0.168263318389258   1.0
Br10   Br   0.746047658797060   0.734732300328446   0.113766534315602   1.0
N11   N   0.757856046798096   0.149936863908238   0.469099207047236   1.0
N12   N   0.893946112979734   0.443902591538148   0.643762238875844   1.0
N13   N   0.613101899265516   0.263025319804086   0.790270035481598   1.0
Pb14   Pb   0.250043391707969   0.784203336033656   0.130474540209349   1.0




# HOIP entry ID:                    1176
# Khazana ID:                       3026
# Organic cation source:            B.Saparov et al., Chem. Rev. 116, 4558 (2016)
# Label:                            Guanidinium Lead Bromide
# Material class:                   Hybrid organic-inorganic perovskite ( MC_ino )
# Geometry class:                   Bulk crystalline materials ( GC_cry )
# Organic cation chemical formula:  C(NH2)3
# Number of atom types:             5
# Total number of atoms:            14
# Atom types:                       C H N  Pb Br
# Number of each atom:              1 6 3  1 3
# Bandgap, HSE06 (eV):              2.8001
# Bandgap, GGA (eV):                1.913
# Kpoint for VBM:                   0.5, 0.5, 0.5
# Kpoint for CBM:                   0.5, 0.5, 0.5
# Dielectric constant, electronic:  4.3688
# Dielectric constant, ionic:       26.1984
# Dielectric constant, total:       30.5672
# Refractive index:                 2.0902
# Atomization energy (eV/atom):     -4.6089
# Relative energy1 (eV/atom):       0.4047
# Relative energy2 (eV/atom):       0.6588
# Volume of the unit cell (A^3):    226.73
# Density (g/cm^3):                 3.7044
# Tool:                             VASP
# Pseudopotential:                  PAW
# Note:                             ENCUT=400eV, k-spacing_relax=0.20/Angstrom, k-spacing_bandgap=0.15/Angstrom
# Created by:                       C.Kim, T.D.Huan, S.Krishnan, R. Ramprasad