data_1
_audit_creation_method   'Generated by vasp2cif'
_cell_length_a    9.45294294685
_cell_length_b    4.2590434168
_cell_length_c    6.22687355262
_cell_angle_alpha    76.8361112654
_cell_angle_beta    96.5033541544
_cell_angle_gamma    116.768598207

_symmetry_space_group_name_H-M    'P 1'
loop_
_atom_site_label
_atom_site_type_symbol
_atom_site_fract_x
_atom_site_fract_y
_atom_site_fract_z
_atom_site_occupancy
C1   C   0.467605509380348   0.208492189914182   0.528596224955415   1.0
H2   H   0.370930674327177   0.355763613156150   0.745874280645275   1.0
H3   H   0.574195951503839   0.570207097592387   0.734567838007500   1.0
H4   H   0.604560071380909   0.126864988050485   0.332608967667788   1.0
H5   H   0.709161371075254   0.439065404925287   0.498810891904356   1.0
H6   H   0.225041707455780   0.942445900096502   0.515526880630851   1.0
H7   H   0.323224765529822   0.830977249931415   0.347026648103451   1.0
Br8   Br   0.968278724894347   0.981789283943201   0.553623050159487   1.0
Br9   Br   0.238283680850906   0.547378456416162   0.019079461689678   1.0
Br10   Br   0.706021076216949   0.018893757594086   0.013736033589296   1.0
N11   N   0.470589444629709   0.409639620932765   0.668524408747444   1.0
N12   N   0.328738190721786   0.965794376435333   0.465543340324409   1.0
N13   N   0.603715520045057   0.250321292896516   0.453964214842038   1.0
Pb14   Pb   0.971393311988294   0.781116768115638   0.040527758732942   1.0




# HOIP entry ID:                    1177
# Khazana ID:                       3027
# Organic cation source:            B.Saparov et al., Chem. Rev. 116, 4558 (2016)
# Label:                            Guanidinium Lead Bromide
# Material class:                   Hybrid organic-inorganic perovskite ( MC_ino )
# Geometry class:                   Bulk crystalline materials ( GC_cry )
# Organic cation chemical formula:  C(NH2)3
# Number of atom types:             5
# Total number of atoms:            14
# Atom types:                       C H N  Pb Br
# Number of each atom:              1 6 3  1 3
# Bandgap, HSE06 (eV):              3.7356
# Bandgap, GGA (eV):                2.787
# Kpoint for VBM:                   -0.375, -0.0909, 0.1429
# Kpoint for CBM:                   0, 0.0455, 0.5
# Dielectric constant, electronic:  3.9655
# Dielectric constant, ionic:       7.2381
# Dielectric constant, total:       11.2036
# Refractive index:                 1.9914
# Atomization energy (eV/atom):     -4.6137
# Relative energy1 (eV/atom):       0.3999
# Relative energy2 (eV/atom):       0.654
# Volume of the unit cell (A^3):    217.93
# Density (g/cm^3):                 3.854
# Tool:                             VASP
# Pseudopotential:                  PAW
# Note:                             ENCUT=400eV, k-spacing_relax=0.20/Angstrom, k-spacing_bandgap=0.15/Angstrom
# Created by:                       C.Kim, T.D.Huan, S.Krishnan, R. Ramprasad