data_1
_audit_creation_method   'Generated by vasp2cif'
_cell_length_a    5.7137195249
_cell_length_b    6.18457692566
_cell_length_c    5.93773319812
_cell_angle_alpha    97.8137844027
_cell_angle_beta    76.035539731
_cell_angle_gamma    80.3600826944

_symmetry_space_group_name_H-M    'P 1'
loop_
_atom_site_label
_atom_site_type_symbol
_atom_site_fract_x
_atom_site_fract_y
_atom_site_fract_z
_atom_site_occupancy
Br1   Br   0.092430685088029   0.046520855417057   0.593644994358116   1.0
Br2   Br   0.524478546490417   0.833963008277485   0.954359252403384   1.0
Br3   Br   0.043022996825150   0.491030329426171   0.156773908065903   1.0
H4   H   0.303958008663050   0.541162967365912   0.404414421944772   1.0
H5   H   0.606092023024170   0.563165390077391   0.349543233502592   1.0
H6   H   0.432065075033724   0.623970411437800   0.633431201811574   1.0
H7   H   0.392966487973948   0.231828837141313   0.536623403662405   1.0
Pb8   Pb   0.973272378462481   0.005492334726149   0.111897510203466   1.0
N9   N   0.459743408237372   0.524308493087760   0.468868819738627   1.0
O10   O   0.545710390201642   0.293077373042945   0.482433254308986   1.0




# HOIP entry ID:                    1178
# Khazana ID:                       3028
# Organic cation source:            G.Kieslich et al., Chem. Sci. 6, 3430 (2015)
# Label:                            Hydroxylammonium Lead Bromide
# Material class:                   Hybrid organic-inorganic perovskite ( MC_ino )
# Geometry class:                   Bulk crystalline materials ( GC_cry )
# Organic cation chemical formula:  OHNH3
# Number of atom types:             5
# Total number of atoms:            10
# Atom types:                        H N O Pb Br
# Number of each atom:               4 1  1 3
# Bandgap, HSE06 (eV):              3.8385
# Bandgap, GGA (eV):                2.8341
# Kpoint for VBM:                   0.5, -0.3333, 0.3571
# Kpoint for CBM:                   0.0714, 0.5, 0.5
# Dielectric constant, electronic:  4.203
# Dielectric constant, ionic:       10.6383
# Dielectric constant, total:       14.8413
# Refractive index:                 2.0501
# Atomization energy (eV/atom):     -3.7775
# Relative energy1 (eV/atom):       0.4197
# Relative energy2 (eV/atom):       0.7754
# Volume of the unit cell (A^3):    197.3
# Density (g/cm^3):                 4.0378
# Tool:                             VASP
# Pseudopotential:                  PAW
# Note:                             ENCUT=400eV, k-spacing_relax=0.20/Angstrom, k-spacing_bandgap=0.15/Angstrom
# Created by:                       C.Kim, T.D.Huan, S.Krishnan, R. Ramprasad