data_1
_audit_creation_method   'Generated by vasp2cif'
_cell_length_a    6.05551783757
_cell_length_b    4.45904226711
_cell_length_c    7.49470969338
_cell_angle_alpha    107.055206697
_cell_angle_beta    86.2307909765
_cell_angle_gamma    92.0735415031

_symmetry_space_group_name_H-M    'P 1'
loop_
_atom_site_label
_atom_site_type_symbol
_atom_site_fract_x
_atom_site_fract_y
_atom_site_fract_z
_atom_site_occupancy
Br1   Br   0.983948787729432   0.164361142370332   0.708946945939111   1.0
Br2   Br   0.481542386123138   0.839126880429106   0.044895063354915   1.0
Br3   Br   0.950226892999140   0.455806809886255   0.305115797281033   1.0
H4   H   0.502111358857270   0.912087499672417   0.372145461378096   1.0
H5   H   0.639323446619677   0.944873877729805   0.570200882811903   1.0
H6   H   0.371818866422608   0.067586507592871   0.589754325133953   1.0
H7   H   0.270579636131245   0.557752674090622   0.448007801538061   1.0
Pb8   Pb   0.984350277472018   0.809454761297779   0.007383508351182   1.0
N9   N   0.486215170014717   0.904921043761441   0.511132668827329   1.0
O10   O   0.411403177630753   0.595238803169323   0.516197545384358   1.0




# HOIP entry ID:                    1179
# Khazana ID:                       3029
# Organic cation source:            G.Kieslich et al., Chem. Sci. 6, 3430 (2015)
# Label:                            Hydroxylammonium Lead Bromide
# Material class:                   Hybrid organic-inorganic perovskite ( MC_ino )
# Geometry class:                   Bulk crystalline materials ( GC_cry )
# Organic cation chemical formula:  OHNH3
# Number of atom types:             5
# Total number of atoms:            10
# Atom types:                        H N O Pb Br
# Number of each atom:               4 1  1 3
# Bandgap, HSE06 (eV):              3.5014
# Bandgap, GGA (eV):                2.6149
# Kpoint for VBM:                   0.5, -0.2778, 0.1667
# Kpoint for CBM:                   0.5, 0.3889, 0.3333
# Dielectric constant, electronic:  4.2582
# Dielectric constant, ionic:       10.5988
# Dielectric constant, total:       14.857
# Refractive index:                 2.0635
# Atomization energy (eV/atom):     -3.7958
# Relative energy1 (eV/atom):       0.4015
# Relative energy2 (eV/atom):       0.7571
# Volume of the unit cell (A^3):    193.02
# Density (g/cm^3):                 4.1274
# Tool:                             VASP
# Pseudopotential:                  PAW
# Note:                             ENCUT=400eV, k-spacing_relax=0.20/Angstrom, k-spacing_bandgap=0.15/Angstrom
# Created by:                       C.Kim, T.D.Huan, S.Krishnan, R. Ramprasad