data_1
_audit_creation_method   'Generated by vasp2cif'
_cell_length_a    7.48849939936
_cell_length_b    4.49370512506
_cell_length_c    6.03214872213
_cell_angle_alpha    90.3583941004
_cell_angle_beta    93.4363621624
_cell_angle_gamma    72.2431407892

_symmetry_space_group_name_H-M    'P 1'
loop_
_atom_site_label
_atom_site_type_symbol
_atom_site_fract_x
_atom_site_fract_y
_atom_site_fract_z
_atom_site_occupancy
Br1   Br   0.757821600745501   0.341951739905035   0.135443175558535   1.0
Br2   Br   0.107654595663845   0.690062482499954   0.621478613017125   1.0
Br3   Br   0.352108615679704   0.041699446355437   0.150186976906319   1.0
H4   H   0.428956734648651   0.373320912261541   0.608728380534785   1.0
H5   H   0.631027911837428   0.209419538395018   0.477005562955675   1.0
H6   H   0.644058136928727   0.321987979336164   0.747639429706076   1.0
H7   H   0.504270660110024   0.955464010472454   0.836551966856014   1.0
Pb8   Pb   0.056354596169719   0.689141031975751   0.119223503915208   1.0
N9   N   0.569142410842019   0.231244318350704   0.628313726474325   1.0
O10   O   0.577244737374322   0.919648540447966   0.698818664076001   1.0




# HOIP entry ID:                    1180
# Khazana ID:                       3030
# Organic cation source:            G.Kieslich et al., Chem. Sci. 6, 3430 (2015)
# Label:                            Hydroxylammonium Lead Bromide
# Material class:                   Hybrid organic-inorganic perovskite ( MC_ino )
# Geometry class:                   Bulk crystalline materials ( GC_cry )
# Organic cation chemical formula:  OHNH3
# Number of atom types:             5
# Total number of atoms:            10
# Atom types:                        H N O Pb Br
# Number of each atom:               4 1  1 3
# Bandgap, HSE06 (eV):              3.5536
# Bandgap, GGA (eV):                2.6493
# Kpoint for VBM:                   0.1, 0.2778, 0.5
# Kpoint for CBM:                   -0.4, 0, 0.4167
# Dielectric constant, electronic:  4.2456
# Dielectric constant, ionic:       9.4072
# Dielectric constant, total:       13.6528
# Refractive index:                 2.0605
# Atomization energy (eV/atom):     -3.7947
# Relative energy1 (eV/atom):       0.4025
# Relative energy2 (eV/atom):       0.7582
# Volume of the unit cell (A^3):    192.95
# Density (g/cm^3):                 4.1289
# Tool:                             VASP
# Pseudopotential:                  PAW
# Note:                             ENCUT=400eV, k-spacing_relax=0.20/Angstrom, k-spacing_bandgap=0.15/Angstrom
# Created by:                       C.Kim, T.D.Huan, S.Krishnan, R. Ramprasad