data_1
_audit_creation_method   'Generated by vasp2cif'
_cell_length_a    6.03858534068
_cell_length_b    4.38093207271
_cell_length_c    7.53561587255
_cell_angle_alpha    106.045233955
_cell_angle_beta    84.8320814769
_cell_angle_gamma    94.4938417013

_symmetry_space_group_name_H-M    'P 1'
loop_
_atom_site_label
_atom_site_type_symbol
_atom_site_fract_x
_atom_site_fract_y
_atom_site_fract_z
_atom_site_occupancy
Br1   Br   0.869203191176246   0.900072685189707   0.754536410759490   1.0
Br2   Br   0.347123310179080   0.605360657103833   0.007305547078673   1.0
Br3   Br   0.877017017861409   0.182691639075432   0.348685490917306   1.0
H4   H   0.462494232281569   0.133796348516133   0.500027944760498   1.0
H5   H   0.495965253854464   0.974984874703009   0.674322843024690   1.0
H6   H   0.228875802784841   0.025633322324899   0.628201277774958   1.0
H7   H   0.335796781612352   0.661520897553634   0.333027051279562   1.0
Pb8   Pb   0.847959385465737   0.539187778058497   0.058385192403612   1.0
N9   N   0.391047642942965   0.975623316374979   0.571973097076018   1.0
O10   O   0.389787381841440   0.652458481099843   0.452935144925242   1.0




# HOIP entry ID:                    1181
# Khazana ID:                       3031
# Organic cation source:            G.Kieslich et al., Chem. Sci. 6, 3430 (2015)
# Label:                            Hydroxylammonium Lead Bromide
# Material class:                   Hybrid organic-inorganic perovskite ( MC_ino )
# Geometry class:                   Bulk crystalline materials ( GC_cry )
# Organic cation chemical formula:  OHNH3
# Number of atom types:             5
# Total number of atoms:            10
# Atom types:                        H N O Pb Br
# Number of each atom:               4 1  1 3
# Bandgap, HSE06 (eV):              3.5121
# Bandgap, GGA (eV):                2.608
# Kpoint for VBM:                   0.5, 0.0556, 0.5
# Kpoint for CBM:                   0.5, 0.5, 0
# Dielectric constant, electronic:  4.2585
# Dielectric constant, ionic:       13.524
# Dielectric constant, total:       17.7824
# Refractive index:                 2.0636
# Atomization energy (eV/atom):     -3.7865
# Relative energy1 (eV/atom):       0.4108
# Relative energy2 (eV/atom):       0.7665
# Volume of the unit cell (A^3):    190.51
# Density (g/cm^3):                 4.1817
# Tool:                             VASP
# Pseudopotential:                  PAW
# Note:                             ENCUT=400eV, k-spacing_relax=0.20/Angstrom, k-spacing_bandgap=0.15/Angstrom
# Created by:                       C.Kim, T.D.Huan, S.Krishnan, R. Ramprasad