data_1
_audit_creation_method   'Generated by vasp2cif'
_cell_length_a    7.64144353301
_cell_length_b    4.39294010781
_cell_length_c    6.03706528333
_cell_angle_alpha    86.4214451098
_cell_angle_beta    75.650336869
_cell_angle_gamma    74.6277786366

_symmetry_space_group_name_H-M    'P 1'
loop_
_atom_site_label
_atom_site_type_symbol
_atom_site_fract_x
_atom_site_fract_y
_atom_site_fract_z
_atom_site_occupancy
Br1   Br   0.767435117602382   0.377668313066337   0.196423162942487   1.0
Br2   Br   0.173442243885255   0.701788055773207   0.753872364265860   1.0
Br3   Br   0.351471217264098   0.103338101791913   0.210578902374145   1.0
H4   H   0.426834716558119   0.962906459959342   0.644634396639127   1.0
H5   H   0.585350745829189   0.177160637885429   0.522317030068997   1.0
H6   H   0.473441356235412   0.214255424960335   0.807853290418599   1.0
H7   H   0.659424532104396   0.783501003355745   0.881028806725112   1.0
Pb8   Pb   0.051840641585073   0.735448354692885   0.262903248821381   1.0
N9   N   0.530844989472271   0.061694028218397   0.668991649331410   1.0
O10   O   0.686894439463870   0.811469620296485   0.712387148412816   1.0




# HOIP entry ID:                    1182
# Khazana ID:                       3032
# Organic cation source:            G.Kieslich et al., Chem. Sci. 6, 3430 (2015)
# Label:                            Hydroxylammonium Lead Bromide
# Material class:                   Hybrid organic-inorganic perovskite ( MC_ino )
# Geometry class:                   Bulk crystalline materials ( GC_cry )
# Organic cation chemical formula:  OHNH3
# Number of atom types:             5
# Total number of atoms:            10
# Atom types:                        H N O Pb Br
# Number of each atom:               4 1  1 3
# Bandgap, HSE06 (eV):              3.9514
# Bandgap, GGA (eV):                2.9224
# Kpoint for VBM:                   0.5, -0.0556, 0.3571
# Kpoint for CBM:                   0.4, 0, 0
# Dielectric constant, electronic:  4.212
# Dielectric constant, ionic:       9.2371
# Dielectric constant, total:       13.4491
# Refractive index:                 2.0523
# Atomization energy (eV/atom):     -3.7843
# Relative energy1 (eV/atom):       0.413
# Relative energy2 (eV/atom):       0.7687
# Volume of the unit cell (A^3):    189.31
# Density (g/cm^3):                 4.2082
# Tool:                             VASP
# Pseudopotential:                  PAW
# Note:                             ENCUT=400eV, k-spacing_relax=0.20/Angstrom, k-spacing_bandgap=0.15/Angstrom
# Created by:                       C.Kim, T.D.Huan, S.Krishnan, R. Ramprasad