data_1
_audit_creation_method   'Generated by vasp2cif'
_cell_length_a    6.0068611804
_cell_length_b    4.50999617423
_cell_length_c    7.27969948477
_cell_angle_alpha    106.528120796
_cell_angle_beta    87.4635120494
_cell_angle_gamma    89.5673117722

_symmetry_space_group_name_H-M    'P 1'
loop_
_atom_site_label
_atom_site_type_symbol
_atom_site_fract_x
_atom_site_fract_y
_atom_site_fract_z
_atom_site_occupancy
Br1   Br   0.838526431143108   0.084284993119502   0.803419406313075   1.0
Br2   Br   0.324819287192674   0.643542197299245   0.958967978745530   1.0
Br3   Br   0.990198915763489   0.351852132787304   0.383880274239705   1.0
H4   H   0.246557926115521   0.111297958286966   0.550996523995117   1.0
H5   H   0.499925489223610   0.105086332605235   0.654100224537381   1.0
H6   H   0.293809296418503   0.885475008080407   0.701531466006221   1.0
H7   H   0.322044751670891   0.607402190750135   0.383956911299381   1.0
Pb8   Pb   0.841375632910412   0.720916025637414   0.095046612198524   1.0
N9   N   0.363022424007805   0.978350708152135   0.596349896184498   1.0
O10   O   0.454629845554082   0.732932453281698   0.434120706480575   1.0




# HOIP entry ID:                    1183
# Khazana ID:                       3033
# Organic cation source:            G.Kieslich et al., Chem. Sci. 6, 3430 (2015)
# Label:                            Hydroxylammonium Lead Bromide
# Material class:                   Hybrid organic-inorganic perovskite ( MC_ino )
# Geometry class:                   Bulk crystalline materials ( GC_cry )
# Organic cation chemical formula:  OHNH3
# Number of atom types:             5
# Total number of atoms:            10
# Atom types:                        H N O Pb Br
# Number of each atom:               4 1  1 3
# Bandgap, HSE06 (eV):              3.9499
# Bandgap, GGA (eV):                2.9251
# Kpoint for VBM:                   0.4167, 0, 0.4167
# Kpoint for CBM:                   0.0833, 0, 0.4167
# Dielectric constant, electronic:  4.1751
# Dielectric constant, ionic:       8.6094
# Dielectric constant, total:       12.7846
# Refractive index:                 2.0433
# Atomization energy (eV/atom):     -3.7858
# Relative energy1 (eV/atom):       0.4114
# Relative energy2 (eV/atom):       0.7671
# Volume of the unit cell (A^3):    188.84
# Density (g/cm^3):                 4.2187
# Tool:                             VASP
# Pseudopotential:                  PAW
# Note:                             ENCUT=400eV, k-spacing_relax=0.20/Angstrom, k-spacing_bandgap=0.15/Angstrom
# Created by:                       C.Kim, T.D.Huan, S.Krishnan, R. Ramprasad