data_1
_audit_creation_method   'Generated by vasp2cif'
_cell_length_a    7.71810576227
_cell_length_b    4.38198742686
_cell_length_c    5.95443441069
_cell_angle_alpha    89.8506289696
_cell_angle_beta    90.7616031469
_cell_angle_gamma    72.900874066

_symmetry_space_group_name_H-M    'P 1'
loop_
_atom_site_label
_atom_site_type_symbol
_atom_site_fract_x
_atom_site_fract_y
_atom_site_fract_z
_atom_site_occupancy
Br1   Br   0.294021371937063   0.003931372097604   0.978310167874724   1.0
Br2   Br   0.918660626778831   0.752891037916910   0.474147647638816   1.0
Br3   Br   0.700926234046904   0.310172994131690   0.963202356623654   1.0
H4   H   0.556603927817001   0.505828919023124   0.287416678740030   1.0
H5   H   0.634869389403455   0.556645186543996   0.547471334186547   1.0
H6   H   0.459748543296911   0.325591302532367   0.695576471010568   1.0
H7   H   0.432588487485255   0.805977240477333   0.454291233809180   1.0
Pb8   Pb   0.003114225785552   0.651938933329056   0.976380337344132   1.0
N9   N   0.518084173835234   0.574788439121406   0.451973892541176   1.0
O10   O   0.422713019613703   0.356994574826537   0.534109880231171   1.0




# HOIP entry ID:                    1184
# Khazana ID:                       3034
# Organic cation source:            G.Kieslich et al., Chem. Sci. 6, 3430 (2015)
# Label:                            Hydroxylammonium Lead Bromide
# Material class:                   Hybrid organic-inorganic perovskite ( MC_ino )
# Geometry class:                   Bulk crystalline materials ( GC_cry )
# Organic cation chemical formula:  OHNH3
# Number of atom types:             5
# Total number of atoms:            10
# Atom types:                        H N O Pb Br
# Number of each atom:               4 1  1 3
# Bandgap, HSE06 (eV):              3.6874
# Bandgap, GGA (eV):                2.7752
# Kpoint for VBM:                   0.5, 0, 0.5
# Kpoint for CBM:                   0.5, 0, 0.3571
# Dielectric constant, electronic:  4.2518
# Dielectric constant, ionic:       15.775
# Dielectric constant, total:       20.0267
# Refractive index:                 2.062
# Atomization energy (eV/atom):     -3.7867
# Relative energy1 (eV/atom):       0.4106
# Relative energy2 (eV/atom):       0.7663
# Volume of the unit cell (A^3):    192.46
# Density (g/cm^3):                 4.1394
# Tool:                             VASP
# Pseudopotential:                  PAW
# Note:                             ENCUT=400eV, k-spacing_relax=0.20/Angstrom, k-spacing_bandgap=0.15/Angstrom
# Created by:                       C.Kim, T.D.Huan, S.Krishnan, R. Ramprasad