data_1
_audit_creation_method   'Generated by vasp2cif'
_cell_length_a    6.09579605441
_cell_length_b    6.08708873763
_cell_length_c    6.03117587908
_cell_angle_alpha    82.3834929335
_cell_angle_beta    84.5193289387
_cell_angle_gamma    86.4822713335

_symmetry_space_group_name_H-M    'P 1'
loop_
_atom_site_label
_atom_site_type_symbol
_atom_site_fract_x
_atom_site_fract_y
_atom_site_fract_z
_atom_site_occupancy
Pb1   Pb   0.630374399850339   0.352870117341027   0.494985275751276   1.0
Br2   Br   0.670003451399054   0.859137069108876   0.471127217574320   1.0
Br3   Br   0.128761756101099   0.333202222162470   0.504652206145373   1.0
Br4   Br   0.589617251292076   0.416122637379715   0.994783979752128   1.0
N5   N   0.086897836973918   0.747761107286614   0.862126819631179   1.0
N6   N   0.231575404258500   0.933650332344385   0.125002964760988   1.0
H7   H   0.211000979877213   0.627628874937024   0.864583252642326   1.0
H8   H   0.367131883503475   0.828464990227317   0.140630261567061   1.0
H9   H   0.967606628913657   0.743159145191377   0.755798310461152   1.0
H10   H   0.211564643515665   0.057264470452047   0.225124612144867   1.0
H11   H   0.941308255069629   0.029032011075920   0.981893932691378   1.0
C12   C   0.080317509245361   0.908697022493207   0.989191166877980   1.0




# HOIP entry ID:                    1185
# Khazana ID:                       3035
# Organic cation source:            T.D.Huan et al., Phys. Rev. B 93,094105(2016)
# Label:                            Formamidinium Lead Bromide
# Material class:                   Hybrid organic-inorganic perovskite ( MC_ino )
# Geometry class:                   Bulk crystalline materials ( GC_cry )
# Organic cation chemical formula:  HC(NH2)2
# Number of atom types:             5
# Total number of atoms:            12
# Atom types:                       C H N  Pb Br
# Number of each atom:              1 5 2  1 3
# Bandgap, HSE06 (eV):              2.7839
# Bandgap, GGA (eV):                1.9223
# Kpoint for VBM:                   0.5, 0.5, 0.5
# Kpoint for CBM:                   0.4474, 0.4474, 0.4474
# Dielectric constant, electronic:  4.3205
# Dielectric constant, ionic:       13.7301
# Dielectric constant, total:       18.0506
# Refractive index:                 2.0786
# Atomization energy (eV/atom):     -4.4256
# Relative energy1 (eV/atom):       -0.0542
# Relative energy2 (eV/atom):       0.2422
# Volume of the unit cell (A^3):    220.53
# Density (g/cm^3):                 3.6955
# Tool:                             VASP
# Pseudopotential:                  PAW
# Note:                             ENCUT=400eV, k-spacing_relax=0.20/Angstrom, k-spacing_bandgap=0.15/Angstrom
# Created by:                       C.Kim, T.D.Huan, S.Krishnan, R. Ramprasad