data_1
_audit_creation_method   'Generated by vasp2cif'
_cell_length_a    6.03943978699
_cell_length_b    6.09256624273
_cell_length_c    6.08020888342
_cell_angle_alpha    88.4356906542
_cell_angle_beta    99.1975886517
_cell_angle_gamma    93.1947769179

_symmetry_space_group_name_H-M    'P 1'
loop_
_atom_site_label
_atom_site_type_symbol
_atom_site_fract_x
_atom_site_fract_y
_atom_site_fract_z
_atom_site_occupancy
Pb1   Pb   0.507070001477885   0.379785178522788   0.649409722892372   1.0
Br2   Br   0.505295563381978   0.878762116388458   0.648662551974475   1.0
Br3   Br   0.471629659126805   0.334977457420685   0.141722887347321   1.0
Br4   Br   0.006235153636162   0.399833479752267   0.578972353181989   1.0
N5   N   0.141698322136001   0.795673540969865   0.045854274492946   1.0
N6   N   0.864519233768910   0.890104134466952   0.247617114079276   1.0
H7   H   0.173721856544731   0.650599072255716   0.129059097589838   1.0
H8   H   0.879973054423843   0.753629315349997   0.349114652131540   1.0
H9   H   0.237068682112955   0.838026433036049   0.925502790170100   1.0
H10   H   0.750174233263380   0.999988183748791   0.271252875668317   1.0
H11   H   0.970851561215540   0.079979377445611   0.994187561222965   1.0
C12   C   0.991130642582533   0.928601665894270   0.091844102249333   1.0




# HOIP entry ID:                    1186
# Khazana ID:                       3036
# Organic cation source:            T.D.Huan et al., Phys. Rev. B 93,094105(2016)
# Label:                            Formamidinium Lead Bromide
# Material class:                   Hybrid organic-inorganic perovskite ( MC_ino )
# Geometry class:                   Bulk crystalline materials ( GC_cry )
# Organic cation chemical formula:  HC(NH2)2
# Number of atom types:             5
# Total number of atoms:            12
# Atom types:                       C H N  Pb Br
# Number of each atom:              1 5 2  1 3
# Bandgap, HSE06 (eV):              2.8978
# Bandgap, GGA (eV):                2.0273
# Kpoint for VBM:                   0.5, 0.5, 0.5
# Kpoint for CBM:                   0.5, 0.5, 0.4474
# Dielectric constant, electronic:  4.3123
# Dielectric constant, ionic:       12.7602
# Dielectric constant, total:       17.0725
# Refractive index:                 2.0766
# Atomization energy (eV/atom):     -4.4251
# Relative energy1 (eV/atom):       -0.0537
# Relative energy2 (eV/atom):       0.2427
# Volume of the unit cell (A^3):    220.47
# Density (g/cm^3):                 3.6965
# Tool:                             VASP
# Pseudopotential:                  PAW
# Note:                             ENCUT=400eV, k-spacing_relax=0.20/Angstrom, k-spacing_bandgap=0.15/Angstrom
# Created by:                       C.Kim, T.D.Huan, S.Krishnan, R. Ramprasad