data_1
_audit_creation_method   'Generated by vasp2cif'
_cell_length_a    5.96272332676
_cell_length_b    6.35327929708
_cell_length_c    5.99595759714
_cell_angle_alpha    101.111414655
_cell_angle_beta    98.1864658242
_cell_angle_gamma    74.6491242788

_symmetry_space_group_name_H-M    'P 1'
loop_
_atom_site_label
_atom_site_type_symbol
_atom_site_fract_x
_atom_site_fract_y
_atom_site_fract_z
_atom_site_occupancy
Pb1   Pb   0.384553123412815   0.496966752476290   0.415379675564473   1.0
Br2   Br   0.513274098481837   0.932719386379411   0.249999377949322   1.0
Br3   Br   0.520394710613125   0.332437182268485   0.849631011372487   1.0
Br4   Br   0.944683205895210   0.362728307921422   0.418557708394019   1.0
N5   N   0.913893763953794   0.686319698219542   0.983092505699638   1.0
N6   N   0.192098849936279   0.865047610889931   0.671498267677968   1.0
H7   H   0.110592475276483   0.807870440035060   0.778367527425381   1.0
H8   H   0.070734249633311   0.982621496358703   0.593658468668956   1.0
H9   H   0.844305943224171   0.551127777414742   0.964664726594499   1.0
H10   H   0.309706945021176   0.945070311295162   0.768860510307150   1.0
H11   H   0.867187589046182   0.022403789779148   0.116862558195628   1.0
C12   C   0.814915045505650   0.867217246962042   0.087437662150542   1.0




# HOIP entry ID:                    1187
# Khazana ID:                       3037
# Organic cation source:            T.D.Huan et al., Phys. Rev. B 93,094105(2016)
# Label:                            Formamidinium Lead Bromide
# Material class:                   Hybrid organic-inorganic perovskite ( MC_ino )
# Geometry class:                   Bulk crystalline materials ( GC_cry )
# Organic cation chemical formula:  HC(NH2)2
# Number of atom types:             5
# Total number of atoms:            12
# Atom types:                       C H N  Pb Br
# Number of each atom:              1 5 2  1 3
# Bandgap, HSE06 (eV):              3.8563
# Bandgap, GGA (eV):                2.7211
# Kpoint for VBM:                   -0.3571, -0.0714, 0.3571
# Kpoint for CBM:                   0.5, 0.5, 0.5
# Dielectric constant, electronic:  3.9545
# Dielectric constant, ionic:       5.7632
# Dielectric constant, total:       9.7176
# Refractive index:                 1.9886
# Atomization energy (eV/atom):     -4.2757
# Relative energy1 (eV/atom):       0.0957
# Relative energy2 (eV/atom):       0.3922
# Volume of the unit cell (A^3):    213.93
# Density (g/cm^3):                 3.8095
# Tool:                             VASP
# Pseudopotential:                  PAW
# Note:                             ENCUT=400eV, k-spacing_relax=0.20/Angstrom, k-spacing_bandgap=0.15/Angstrom
# Created by:                       C.Kim, T.D.Huan, S.Krishnan, R. Ramprasad