data_1
_audit_creation_method   'Generated by vasp2cif'
_cell_length_a    6.37417917571
_cell_length_b    6.46427811885
_cell_length_c    6.41975550239
_cell_angle_alpha    90.052842587
_cell_angle_beta    89.4834379843
_cell_angle_gamma    90.1123813786

_symmetry_space_group_name_H-M    'P 1'
loop_
_atom_site_label
_atom_site_type_symbol
_atom_site_fract_x
_atom_site_fract_y
_atom_site_fract_z
_atom_site_occupancy
C1   C   0.400756131687025   0.359447513756002   0.334996574196040   1.0
C2   C   0.624671587708598   0.590130953118823   0.544946279453519   1.0
C3   C   0.406304119056273   0.321737166466455   0.717558011154040   1.0
C4   C   0.239199804862899   0.629486634409574   0.557052322076444   1.0
H5   H   0.251704345409145   0.708001371095122   0.706438774481811   1.0
H6   H   0.091645466098683   0.545244909781474   0.546831768814094   1.0
H7   H   0.251197082945446   0.278555291226226   0.334575972459412   1.0
H8   H   0.633832280184883   0.671784341644177   0.692726893997367   1.0
H9   H   0.253819204129428   0.246264770562988   0.713264518282543   1.0
H10   H   0.426701144662452   0.405841878507552   0.862923306300559   1.0
H11   H   0.750394174843251   0.477148988348006   0.529982654675294   1.0
H12   H   0.255515032217843   0.739421291963872   0.429758649532175   1.0
H13   H   0.531437989663267   0.209600986622277   0.694970866034588   1.0
H14   H   0.409459528797001   0.471492761351278   0.208634893184239   1.0
H15   H   0.627660944006166   0.698224078518273   0.415522553989092   1.0
H16   H   0.530080545422244   0.250711910730843   0.325879994278040   1.0
Br17   Br   0.441223249282345   0.903253202513284   0.046367064990513   1.0
Br18   Br   0.910379330716445   0.043925552870988   0.516329947902925   1.0
Br19   Br   0.911612964120309   0.444443544992325   0.030852803633195   1.0
N20   N   0.417418928805958   0.475270161633304   0.539313820836497   1.0
Pb21   Pb   0.909096145380275   0.991162689887183   0.053092329727534   1.0




# HOIP entry ID:                    1189
# Khazana ID:                       3039
# Organic cation source:            B.Saparov et al., Chem. Rev. 116, 4558 (2016)
# Label:                            Tetramethylammonium Lead Bromide
# Material class:                   Hybrid organic-inorganic perovskite ( MC_ino )
# Geometry class:                   Bulk crystalline materials ( GC_cry )
# Organic cation chemical formula:  (CH3)4N
# Number of atom types:             5
# Total number of atoms:            21
# Atom types:                       C H N  Pb Br
# Number of each atom:              4 12 1  1 3
# Bandgap, HSE06 (eV):              3.232
# Bandgap, GGA (eV):                2.2759
# Kpoint for VBM:                   0.5, 0.5, 0.5
# Kpoint for CBM:                   0.5, 0.5, 0.5
# Dielectric constant, electronic:  3.8978
# Dielectric constant, ionic:       8.0873
# Dielectric constant, total:       11.9851
# Refractive index:                 1.9743
# Atomization energy (eV/atom):     -4.4822
# Relative energy1 (eV/atom):       -0.0041
# Relative energy2 (eV/atom):       0.1439
# Volume of the unit cell (A^3):    264.51
# Density (g/cm^3):                 3.2636
# Tool:                             VASP
# Pseudopotential:                  PAW
# Note:                             ENCUT=400eV, k-spacing_relax=0.20/Angstrom, k-spacing_bandgap=0.15/Angstrom
# Created by:                       C.Kim, T.D.Huan, S.Krishnan, R. Ramprasad