data_1
_audit_creation_method   'Generated by vasp2cif'
_cell_length_a    6.95532160721
_cell_length_b    4.99701891138
_cell_length_c    8.0336165032
_cell_angle_alpha    91.2723891876
_cell_angle_beta    89.9414925504
_cell_angle_gamma    85.3439051753

_symmetry_space_group_name_H-M    'P 1'
loop_
_atom_site_label
_atom_site_type_symbol
_atom_site_fract_x
_atom_site_fract_y
_atom_site_fract_z
_atom_site_occupancy
C1   C   0.429022551198855   0.369735830143490   0.467323167898549   1.0
C2   C   0.566994040540209   0.735615051647265   0.626572086326775   1.0
C3   C   0.366719239975161   0.426539060226702   0.773023065448641   1.0
C4   C   0.212093728286320   0.748446293202818   0.575338797070387   1.0
H5   H   0.230363963079689   0.844432658915458   0.456788825479045   1.0
H6   H   0.187706104509530   0.896256157331472   0.676262082513276   1.0
H7   H   0.444085652536458   0.480368618195683   0.353322089912638   1.0
H8   H   0.586255748444898   0.833468748583869   0.508723924787191   1.0
H9   H   0.244789534869952   0.305165961500236   0.758842398503234   1.0
H10   H   0.337634421628664   0.577397453713345   0.871865896496963   1.0
H11   H   0.540646093184193   0.881241850634758   0.728390375806633   1.0
H12   H   0.091702606862917   0.621887254402758   0.567874559040561   1.0
H13   H   0.499301990695955   0.305581277781997   0.801196303553198   1.0
H14   H   0.562021585442160   0.248275555708489   0.491683799017437   1.0
H15   H   0.692997821768699   0.599739623647345   0.653507972780019   1.0
H16   H   0.305256734215135   0.251334210520184   0.457322439440901   1.0
Br17   Br   0.455203977122551   0.900375606261306   0.125747713872002   1.0
Br18   Br   0.923903701936311   0.245532992052119   0.343145554685535   1.0
Br19   Br   0.886372834292160   0.212567668257918   0.848428084743354   1.0
N20   N   0.393777260300467   0.570333102513743   0.610978884908505   1.0
Pb21   Pb   0.869920409109724   0.795535024759076   0.104511977714957   1.0




# HOIP entry ID:                    1190
# Khazana ID:                       3040
# Organic cation source:            B.Saparov et al., Chem. Rev. 116, 4558 (2016)
# Label:                            Tetramethylammonium Lead Bromide
# Material class:                   Hybrid organic-inorganic perovskite ( MC_ino )
# Geometry class:                   Bulk crystalline materials ( GC_cry )
# Organic cation chemical formula:  (CH3)4N
# Number of atom types:             5
# Total number of atoms:            21
# Atom types:                       C H N  Pb Br
# Number of each atom:              4 12 1  1 3
# Bandgap, HSE06 (eV):              3.8502
# Bandgap, GGA (eV):                2.866
# Kpoint for VBM:                   0.4167, 0.4375, 0
# Kpoint for CBM:                   0.5, 0, 0.5
# Dielectric constant, electronic:  3.3538
# Dielectric constant, ionic:       4.4727
# Dielectric constant, total:       7.8265
# Refractive index:                 1.8313
# Atomization energy (eV/atom):     -4.4731
# Relative energy1 (eV/atom):       0.0051
# Relative energy2 (eV/atom):       0.153
# Volume of the unit cell (A^3):    278.22
# Density (g/cm^3):                 3.1028
# Tool:                             VASP
# Pseudopotential:                  PAW
# Note:                             ENCUT=400eV, k-spacing_relax=0.20/Angstrom, k-spacing_bandgap=0.15/Angstrom
# Created by:                       C.Kim, T.D.Huan, S.Krishnan, R. Ramprasad