data_1
_audit_creation_method   'Generated by vasp2cif'
_cell_length_a    6.09924246372
_cell_length_b    5.87109244148
_cell_length_c    6.0145966789
_cell_angle_alpha    94.3173099803
_cell_angle_beta    87.0883955272
_cell_angle_gamma    88.8356620347

_symmetry_space_group_name_H-M    'P 1'
loop_
_atom_site_label
_atom_site_type_symbol
_atom_site_fract_x
_atom_site_fract_y
_atom_site_fract_z
_atom_site_occupancy
Br1   Br   0.918823093787836   0.943836514047057   0.557654819720646   1.0
Br2   Br   0.477244583136169   0.993052361009532   0.041740630570956   1.0
Br3   Br   0.032624223175382   0.498270535890469   0.973384901469686   1.0
H4   H   0.286129509827916   0.569788553688127   0.533362256433897   1.0
H5   H   0.516688227911615   0.682670065886562   0.444426274486290   1.0
H6   H   0.487939212529106   0.341344024725629   0.761528970620084   1.0
H7   H   0.716575873595801   0.467041255194012   0.675578529421998   1.0
H8   H   0.521291027161432   0.623236270106553   0.828323097119593   1.0
Pb9   Pb   0.979229416374331   0.007975420006723   0.077248239005549   1.0
N10   N   0.449239851185524   0.533535723750170   0.491614619232429   1.0
N11   N   0.548944981314875   0.490279275695130   0.703747661919060   1.0




# HOIP entry ID:                    1191
# Khazana ID:                       3041
# Organic cation source:            B.Saparov et al., Chem. Rev. 116, 4558 (2016)
# Label:                            Hydrazinium Lead Bromide
# Material class:                   Hybrid organic-inorganic perovskite ( MC_ino )
# Geometry class:                   Bulk crystalline materials ( GC_cry )
# Organic cation chemical formula:  NH2NH3
# Number of atom types:             4
# Total number of atoms:            11
# Atom types:                        H N  Pb Br
# Number of each atom:               5 2  1 3
# Bandgap, HSE06 (eV):              3.1859
# Bandgap, GGA (eV):                2.3859
# Kpoint for VBM:                   0.5, 0.5, 0.5
# Kpoint for CBM:                   0.5, 0.5, 0.5
# Dielectric constant, electronic:  4.1464
# Dielectric constant, ionic:       9.2183
# Dielectric constant, total:       13.3646
# Refractive index:                 2.0363
# Atomization energy (eV/atom):     -3.951
# Relative energy1 (eV/atom):       0.4712
# Relative energy2 (eV/atom):       0.7945
# Volume of the unit cell (A^3):    214.43
# Density (g/cm^3):                 3.7076
# Tool:                             VASP
# Pseudopotential:                  PAW
# Note:                             ENCUT=400eV, k-spacing_relax=0.20/Angstrom, k-spacing_bandgap=0.15/Angstrom
# Created by:                       C.Kim, T.D.Huan, S.Krishnan, R. Ramprasad