data_1
_audit_creation_method   'Generated by vasp2cif'
_cell_length_a    4.19709148525
_cell_length_b    6.22042313248
_cell_length_c    7.90003432847
_cell_angle_alpha    93.3859131538
_cell_angle_beta    107.482795459
_cell_angle_gamma    90.2588584498

_symmetry_space_group_name_H-M    'P 1'
loop_
_atom_site_label
_atom_site_type_symbol
_atom_site_fract_x
_atom_site_fract_y
_atom_site_fract_z
_atom_site_occupancy
Br1   Br   0.563205591739231   0.033533976732031   0.452698364325745   1.0
Br2   Br   0.229413785236256   0.963399509813724   0.861102406202857   1.0
Br3   Br   0.875497438493422   0.488147289024653   0.117088420296997   1.0
H4   H   0.264127370835234   0.495545174141022   0.468139513038160   1.0
H5   H   0.355552563103795   0.708374917275753   0.611405475295878   1.0
H6   H   0.926720061748373   0.490172751843208   0.662599944979951   1.0
H7   H   0.199091454891447   0.285616129028333   0.698049050845125   1.0
H8   H   0.283297076224108   0.506367192999074   0.834713460759895   1.0
Pb9   Pb   0.895796019689240   0.994654909250604   0.157020863166878   1.0
N10   N   0.380916722496425   0.544498304474095   0.599046535580569   1.0
N11   N   0.179541915542468   0.451929845417428   0.702975965507993   1.0




# HOIP entry ID:                    1192
# Khazana ID:                       3042
# Organic cation source:            B.Saparov et al., Chem. Rev. 116, 4558 (2016)
# Label:                            Hydrazinium Lead Bromide
# Material class:                   Hybrid organic-inorganic perovskite ( MC_ino )
# Geometry class:                   Bulk crystalline materials ( GC_cry )
# Organic cation chemical formula:  NH2NH3
# Number of atom types:             4
# Total number of atoms:            11
# Atom types:                        H N  Pb Br
# Number of each atom:               5 2  1 3
# Bandgap, HSE06 (eV):              3.3594
# Bandgap, GGA (eV):                2.4495
# Kpoint for VBM:                   0.0556, 0.5, 0.5
# Kpoint for CBM:                   0.5, 0.5, 0.5
# Dielectric constant, electronic:  4.2282
# Dielectric constant, ionic:       9.9298
# Dielectric constant, total:       14.158
# Refractive index:                 2.0563
# Atomization energy (eV/atom):     -3.9737
# Relative energy1 (eV/atom):       0.4486
# Relative energy2 (eV/atom):       0.7719
# Volume of the unit cell (A^3):    196.33
# Density (g/cm^3):                 4.0494
# Tool:                             VASP
# Pseudopotential:                  PAW
# Note:                             ENCUT=400eV, k-spacing_relax=0.20/Angstrom, k-spacing_bandgap=0.15/Angstrom
# Created by:                       C.Kim, T.D.Huan, S.Krishnan, R. Ramprasad