data_1
_audit_creation_method   'Generated by vasp2cif'
_cell_length_a    8.50471115565
_cell_length_b    5.8877112379
_cell_length_c    6.02091468116
_cell_angle_alpha    108.015623182
_cell_angle_beta    46.5328815121
_cell_angle_gamma    116.233543146

_symmetry_space_group_name_H-M    'P 1'
loop_
_atom_site_label
_atom_site_type_symbol
_atom_site_fract_x
_atom_site_fract_y
_atom_site_fract_z
_atom_site_occupancy
Br1   Br   0.577821565697106   0.902797459261947   0.509950120636579   1.0
Br2   Br   0.175525451300025   0.968637584431962   0.424977667667575   1.0
Br3   Br   0.940445464306730   0.475321312176621   0.031446120270790   1.0
H4   H   0.409219632762642   0.615710073405275   0.186725413020208   1.0
H5   H   0.490260530123650   0.644053280627227   0.853146397421857   1.0
H6   H   0.668290798091030   0.436720432304767   0.981016653195455   1.0
H7   H   0.681437299434179   0.328725213584900   0.677375031828810   1.0
H8   H   0.814420719970005   0.639437898503623   0.703527372689631   1.0
Pb9   Pb   0.112484364531734   0.046873970085057   0.002838472969647   1.0
N10   N   0.451975300796203   0.521182840926361   0.986544732711980   1.0
N11   N   0.668598872986596   0.481689934692307   0.826772017587491   1.0




# HOIP entry ID:                    1193
# Khazana ID:                       3043
# Organic cation source:            B.Saparov et al., Chem. Rev. 116, 4558 (2016)
# Label:                            Hydrazinium Lead Bromide
# Material class:                   Hybrid organic-inorganic perovskite ( MC_ino )
# Geometry class:                   Bulk crystalline materials ( GC_cry )
# Organic cation chemical formula:  NH2NH3
# Number of atom types:             4
# Total number of atoms:            11
# Atom types:                        H N  Pb Br
# Number of each atom:               5 2  1 3
# Bandgap, HSE06 (eV):              3.7784
# Bandgap, GGA (eV):                2.7589
# Kpoint for VBM:                   0.1, 0.3571, 0.4
# Kpoint for CBM:                   -0.2, -0.1429, 0.35
# Dielectric constant, electronic:  4.3207
# Dielectric constant, ionic:       13.3878
# Dielectric constant, total:       17.7084
# Refractive index:                 2.0786
# Atomization energy (eV/atom):     -3.9539
# Relative energy1 (eV/atom):       0.4683
# Relative energy2 (eV/atom):       0.7917
# Volume of the unit cell (A^3):    196.27
# Density (g/cm^3):                 4.0507
# Tool:                             VASP
# Pseudopotential:                  PAW
# Note:                             ENCUT=400eV, k-spacing_relax=0.20/Angstrom, k-spacing_bandgap=0.15/Angstrom
# Created by:                       C.Kim, T.D.Huan, S.Krishnan, R. Ramprasad