data_1
_audit_creation_method   'Generated by vasp2cif'
_cell_length_a    4.08474205877
_cell_length_b    6.29022629434
_cell_length_c    8.31796290619
_cell_angle_alpha    83.3563295928
_cell_angle_beta    106.571082711
_cell_angle_gamma    113.660808626

_symmetry_space_group_name_H-M    'P 1'
loop_
_atom_site_label
_atom_site_type_symbol
_atom_site_fract_x
_atom_site_fract_y
_atom_site_fract_z
_atom_site_occupancy
Br1   Br   0.181546889689912   0.971718940377023   0.556077443235829   1.0
Br2   Br   0.526206933758125   0.986115542198768   0.136123746443587   1.0
Br3   Br   0.621322270244370   0.513591545331373   0.861461128774749   1.0
H4   H   0.313595149427677   0.459045948830635   0.511081677069626   1.0
H5   H   0.368346630021371   0.698207900676401   0.397307610547472   1.0
H6   H   0.660848233574029   0.463750175328329   0.329751251446986   1.0
H7   H   0.223432130136139   0.262332815210542   0.262325267049754   1.0
H8   H   0.350027422373834   0.525668321230498   0.169990740542993   1.0
Pb9   Pb   0.882804930949639   0.040855315220867   0.839212356991396   1.0
N10   N   0.229948351816830   0.521122888405337   0.393183161630176   1.0
N11   N   0.380531058007975   0.437630607190172   0.282945616267412   1.0




# HOIP entry ID:                    1194
# Khazana ID:                       3044
# Organic cation source:            B.Saparov et al., Chem. Rev. 116, 4558 (2016)
# Label:                            Hydrazinium Lead Bromide
# Material class:                   Hybrid organic-inorganic perovskite ( MC_ino )
# Geometry class:                   Bulk crystalline materials ( GC_cry )
# Organic cation chemical formula:  NH2NH3
# Number of atom types:             4
# Total number of atoms:            11
# Atom types:                        H N  Pb Br
# Number of each atom:               5 2  1 3
# Bandgap, HSE06 (eV):              3.7302
# Bandgap, GGA (eV):                2.7949
# Kpoint for VBM:                   0.05, -0.4375, 0.4167
# Kpoint for CBM:                   0, 0.5, 0
# Dielectric constant, electronic:  4.3523
# Dielectric constant, ionic:       12.0941
# Dielectric constant, total:       16.4464
# Refractive index:                 2.0862
# Atomization energy (eV/atom):     -3.9721
# Relative energy1 (eV/atom):       0.4501
# Relative energy2 (eV/atom):       0.7735
# Volume of the unit cell (A^3):    187.62
# Density (g/cm^3):                 4.2374
# Tool:                             VASP
# Pseudopotential:                  PAW
# Note:                             ENCUT=400eV, k-spacing_relax=0.20/Angstrom, k-spacing_bandgap=0.15/Angstrom
# Created by:                       C.Kim, T.D.Huan, S.Krishnan, R. Ramprasad