data_1
_audit_creation_method   'Generated by vasp2cif'
_cell_length_a    7.74689850646
_cell_length_b    5.86382391535
_cell_length_c    4.62645061697
_cell_angle_alpha    90.1658850046
_cell_angle_beta    107.142346339
_cell_angle_gamma    75.8479226482

_symmetry_space_group_name_H-M    'P 1'
loop_
_atom_site_label
_atom_site_type_symbol
_atom_site_fract_x
_atom_site_fract_y
_atom_site_fract_z
_atom_site_occupancy
Br1   Br   0.514016126771956   0.996871636204411   0.143702453495891   1.0
Br2   Br   0.089577248044648   0.991375253806908   0.429632767507591   1.0
Br3   Br   0.942385628347303   0.530588759096318   0.854629655098613   1.0
H4   H   0.486142077682111   0.598949657711209   0.456243730957056   1.0
H5   H   0.473986551806277   0.605757113535979   0.802716653529835   1.0
H6   H   0.188800716909341   0.570836911343100   0.457463589258062   1.0
H7   H   0.310226827329956   0.314193724159509   0.358079151311905   1.0
H8   H   0.292792987954847   0.329885432111304   0.707199105188295   1.0
Pb9   Pb   0.807496593844455   0.062981846537966   0.792892964904446   1.0
N10   N   0.482954317543289   0.494479254462569   0.632165805998426   1.0
N11   N   0.304860923765851   0.426480411030781   0.530624122749899   1.0




# HOIP entry ID:                    1195
# Khazana ID:                       3045
# Organic cation source:            B.Saparov et al., Chem. Rev. 116, 4558 (2016)
# Label:                            Hydrazinium Lead Bromide
# Material class:                   Hybrid organic-inorganic perovskite ( MC_ino )
# Geometry class:                   Bulk crystalline materials ( GC_cry )
# Organic cation chemical formula:  NH2NH3
# Number of atom types:             4
# Total number of atoms:            11
# Atom types:                        H N  Pb Br
# Number of each atom:               5 2  1 3
# Bandgap, HSE06 (eV):              4.0317
# Bandgap, GGA (eV):                2.933
# Kpoint for VBM:                   0, 0, 0
# Kpoint for CBM:                   0.4, 0, 0
# Dielectric constant, electronic:  4.1463
# Dielectric constant, ionic:       8.5918
# Dielectric constant, total:       12.7381
# Refractive index:                 2.0363
# Atomization energy (eV/atom):     -3.9657
# Relative energy1 (eV/atom):       0.4565
# Relative energy2 (eV/atom):       0.7799
# Volume of the unit cell (A^3):    194.19
# Density (g/cm^3):                 4.0941
# Tool:                             VASP
# Pseudopotential:                  PAW
# Note:                             ENCUT=400eV, k-spacing_relax=0.20/Angstrom, k-spacing_bandgap=0.15/Angstrom
# Created by:                       C.Kim, T.D.Huan, S.Krishnan, R. Ramprasad