data_1
_audit_creation_method   'Generated by vasp2cif'
_cell_length_a    8.11419608966
_cell_length_b    4.10695226846
_cell_length_c    5.9789520951
_cell_angle_alpha    89.3884096515
_cell_angle_beta    89.7742498205
_cell_angle_gamma    76.97825757

_symmetry_space_group_name_H-M    'P 1'
loop_
_atom_site_label
_atom_site_type_symbol
_atom_site_fract_x
_atom_site_fract_y
_atom_site_fract_z
_atom_site_occupancy
Br1   Br   0.223492516160810   0.543241961582019   0.009738868957413   1.0
Br2   Br   0.961996912604242   0.272574627622845   0.512012663018062   1.0
Br3   Br   0.635537615715641   0.812608964425863   0.012847742381943   1.0
H4   H   0.564993213894503   0.455559030549388   0.659871328676552   1.0
H5   H   0.578179186691791   0.457736675960881   0.384506706411408   1.0
H6   H   0.289183756198874   0.760813898958567   0.643906716898805   1.0
H7   H   0.416988513404974   0.975896757626685   0.509116126880997   1.0
H8   H   0.298718018900964   0.757869670384942   0.362052990421574   1.0
Pb9   Pb   0.927608276577665   0.171850314530154   0.012302968851984   1.0
N10   N   0.498034580527239   0.442976346842641   0.515875803397698   1.0
N11   N   0.368407409323375   0.760561751516022   0.507138084103580   1.0




# HOIP entry ID:                    1196
# Khazana ID:                       3046
# Organic cation source:            B.Saparov et al., Chem. Rev. 116, 4558 (2016)
# Label:                            Hydrazinium Lead Bromide
# Material class:                   Hybrid organic-inorganic perovskite ( MC_ino )
# Geometry class:                   Bulk crystalline materials ( GC_cry )
# Organic cation chemical formula:  NH2NH3
# Number of atom types:             4
# Total number of atoms:            11
# Atom types:                        H N  Pb Br
# Number of each atom:               5 2  1 3
# Bandgap, HSE06 (eV):              3.432
# Bandgap, GGA (eV):                2.6163
# Kpoint for VBM:                   0.5, 0, 0.5
# Kpoint for CBM:                   0.1, 0, 0.5
# Dielectric constant, electronic:  4.2504
# Dielectric constant, ionic:       7.9521
# Dielectric constant, total:       12.2026
# Refractive index:                 2.0617
# Atomization energy (eV/atom):     -3.9754
# Relative energy1 (eV/atom):       0.4469
# Relative energy2 (eV/atom):       0.7702
# Volume of the unit cell (A^3):    194.11
# Density (g/cm^3):                 4.0958
# Tool:                             VASP
# Pseudopotential:                  PAW
# Note:                             ENCUT=400eV, k-spacing_relax=0.20/Angstrom, k-spacing_bandgap=0.15/Angstrom
# Created by:                       C.Kim, T.D.Huan, S.Krishnan, R. Ramprasad