data_1
_audit_creation_method   'Generated by vasp2cif'
_cell_length_a    6.20802238602
_cell_length_b    4.19802818653
_cell_length_c    7.84715926725
_cell_angle_alpha    103.834725616
_cell_angle_beta    87.4850477276
_cell_angle_gamma    83.3608279239

_symmetry_space_group_name_H-M    'P 1'
loop_
_atom_site_label
_atom_site_type_symbol
_atom_site_fract_x
_atom_site_fract_y
_atom_site_fract_z
_atom_site_occupancy
Br1   Br   0.022318548743326   0.560791348346822   0.721275248091644   1.0
Br2   Br   0.509329337553456   0.232107444727155   0.037411907270360   1.0
Br3   Br   0.981794438548931   0.831039850542025   0.309640739263716   1.0
H4   H   0.503279587886164   0.894025599140739   0.371519999955195   1.0
H5   H   0.294049945346244   0.007550581812146   0.519526509863210   1.0
H6   H   0.728489951347377   0.160182820546535   0.559990949087475   1.0
H7   H   0.508512720712820   0.438973936818280   0.564834659431221   1.0
H8   H   0.538057557689032   0.242243698848630   0.729993247399926   1.0
Pb9   Pb   0.010898488992002   0.194925997196965   0.020698375880812   1.0
N10   N   0.458297948402175   0.929871488217098   0.503070939900792   1.0
N11   N   0.563041474778468   0.215287233803661   0.594737423855644   1.0




# HOIP entry ID:                    1197
# Khazana ID:                       3047
# Organic cation source:            B.Saparov et al., Chem. Rev. 116, 4558 (2016)
# Label:                            Hydrazinium Lead Bromide
# Material class:                   Hybrid organic-inorganic perovskite ( MC_ino )
# Geometry class:                   Bulk crystalline materials ( GC_cry )
# Organic cation chemical formula:  NH2NH3
# Number of atom types:             4
# Total number of atoms:            11
# Atom types:                        H N  Pb Br
# Number of each atom:               5 2  1 3
# Bandgap, HSE06 (eV):              3.3201
# Bandgap, GGA (eV):                2.4566
# Kpoint for VBM:                   0.5, 0, 0.5
# Kpoint for CBM:                   0.5, 0.5, 0.5
# Dielectric constant, electronic:  4.2319
# Dielectric constant, ionic:       13.3323
# Dielectric constant, total:       17.5643
# Refractive index:                 2.0572
# Atomization energy (eV/atom):     -3.9753
# Relative energy1 (eV/atom):       0.4469
# Relative energy2 (eV/atom):       0.7703
# Volume of the unit cell (A^3):    196.7
# Density (g/cm^3):                 4.0418
# Tool:                             VASP
# Pseudopotential:                  PAW
# Note:                             ENCUT=400eV, k-spacing_relax=0.20/Angstrom, k-spacing_bandgap=0.15/Angstrom
# Created by:                       C.Kim, T.D.Huan, S.Krishnan, R. Ramprasad