data_1
_audit_creation_method   'Generated by vasp2cif'
_cell_length_a    7.91879714509
_cell_length_b    4.19961132421
_cell_length_c    6.22853742525
_cell_angle_alpha    91.1692560228
_cell_angle_beta    95.1641608605
_cell_angle_gamma    72.041356603

_symmetry_space_group_name_H-M    'P 1'
loop_
_atom_site_label
_atom_site_type_symbol
_atom_site_fract_x
_atom_site_fract_y
_atom_site_fract_z
_atom_site_occupancy
Br1   Br   0.718319077257628   0.194662212191940   0.971027978849788   1.0
Br2   Br   0.994511186222211   0.529086875499481   0.500346933363806   1.0
Br3   Br   0.310696481098508   0.852951361133388   0.043221349148828   1.0
H4   H   0.337534118552443   0.040931151564266   0.521192155753890   1.0
H5   H   0.496393824198992   0.959393221539413   0.721819044906376   1.0
H6   H   0.533863233512922   0.115322245818165   0.286181645057671   1.0
H7   H   0.533053531811735   0.375495343496125   0.497708180248072   1.0
H8   H   0.700489106648868   0.009701267003984   0.481467779057212   1.0
Pb9   Pb   0.014852966118698   0.522223273517108   0.002324417298623   1.0
N10   N   0.471442363343648   0.925801829332672   0.559622720426831   1.0
N11   N   0.564204111234330   0.125131218903523   0.450887795888748   1.0




# HOIP entry ID:                    1198
# Khazana ID:                       3048
# Organic cation source:            B.Saparov et al., Chem. Rev. 116, 4558 (2016)
# Label:                            Hydrazinium Lead Bromide
# Material class:                   Hybrid organic-inorganic perovskite ( MC_ino )
# Geometry class:                   Bulk crystalline materials ( GC_cry )
# Organic cation chemical formula:  NH2NH3
# Number of atom types:             4
# Total number of atoms:            11
# Atom types:                        H N  Pb Br
# Number of each atom:               5 2  1 3
# Bandgap, HSE06 (eV):              3.3254
# Bandgap, GGA (eV):                2.4394
# Kpoint for VBM:                   0.5, 0, 0.5
# Kpoint for CBM:                   0.5, 0.5, 0.5
# Dielectric constant, electronic:  4.2395
# Dielectric constant, ionic:       12.7244
# Dielectric constant, total:       16.9639
# Refractive index:                 2.059
# Atomization energy (eV/atom):     -3.9754
# Relative energy1 (eV/atom):       0.4468
# Relative energy2 (eV/atom):       0.7702
# Volume of the unit cell (A^3):    196.24
# Density (g/cm^3):                 4.0513
# Tool:                             VASP
# Pseudopotential:                  PAW
# Note:                             ENCUT=400eV, k-spacing_relax=0.20/Angstrom, k-spacing_bandgap=0.15/Angstrom
# Created by:                       C.Kim, T.D.Huan, S.Krishnan, R. Ramprasad