data_1
_audit_creation_method   'Generated by vasp2cif'
_cell_length_a    5.99171443982
_cell_length_b    5.99442590004
_cell_length_c    6.00422920019
_cell_angle_alpha    83.4166885442
_cell_angle_beta    83.7822071719
_cell_angle_gamma    83.7177914005

_symmetry_space_group_name_H-M    'P 1'
loop_
_atom_site_label
_atom_site_type_symbol
_atom_site_fract_x
_atom_site_fract_y
_atom_site_fract_z
_atom_site_occupancy
Pb1   Pb   0.970341339210947   0.969687739184991   0.026452989557711   1.0
Br2   Br   0.027357494683422   0.860412289293663   0.520730947673229   1.0
Br3   Br   0.464088858824091   0.029607857448077   0.916456329996876   1.0
Br4   Br   0.861108430238723   0.463278995973262   0.085259829506839   1.0
N5   N   0.531971774860473   0.532816310562481   0.585040482511907   1.0
H6   H   0.380541795264996   0.627990457263380   0.554313887825536   1.0
H7   H   0.500195112047258   0.383281741841117   0.683629215073104   1.0
H8   H   0.622940740943960   0.497363863242619   0.433532214451965   1.0
H9   H   0.625774453926084   0.623880745190455   0.669534103402825   1.0




# HOIP entry ID:                    1199
# Khazana ID:                       3049
# Organic cation source:            T.D.Huan et al., Phys. Rev. B 93,094105(2016)
# Label:                            Ammonium Lead Bromide
# Material class:                   Hybrid organic-inorganic perovskite ( MC_ino )
# Geometry class:                   Bulk crystalline materials ( GC_cry )
# Organic cation chemical formula:  NH4
# Number of atom types:             4
# Total number of atoms:            9
# Atom types:                        H N  Pb Br
# Number of each atom:               4 1  1 3
# Bandgap, HSE06 (eV):              3.2364
# Bandgap, GGA (eV):                2.378
# Kpoint for VBM:                   0.5, 0.5, 0.5
# Kpoint for CBM:                   0.3684, 0.3684, 0.3684
# Dielectric constant, electronic:  3.9671
# Dielectric constant, ionic:       10.1026
# Dielectric constant, total:       14.0696
# Refractive index:                 1.9918
# Atomization energy (eV/atom):     -3.7407
# Relative energy1 (eV/atom):       0.425
# Relative energy2 (eV/atom):       0.8203
# Volume of the unit cell (A^3):    211.94
# Density (g/cm^3):                 3.6335
# Tool:                             VASP
# Pseudopotential:                  PAW
# Note:                             ENCUT=400eV, k-spacing_relax=0.20/Angstrom, k-spacing_bandgap=0.15/Angstrom
# Created by:                       C.Kim, T.D.Huan, S.Krishnan, R. Ramprasad