data_1
_audit_creation_method   'Generated by vasp2cif'
_cell_length_a    7.52500076829
_cell_length_b    6.2314861878
_cell_length_c    4.40598990334
_cell_angle_alpha    108.275667813
_cell_angle_beta    105.948070544
_cell_angle_gamma    75.5823430084

_symmetry_space_group_name_H-M    'P 1'
loop_
_atom_site_label
_atom_site_type_symbol
_atom_site_fract_x
_atom_site_fract_y
_atom_site_fract_z
_atom_site_occupancy
Pb1   Pb   0.135342685050858   0.999686570805515   0.226563915328164   1.0
Br2   Br   0.459769381084605   0.937602030637365   0.859870795732995   1.0
Br3   Br   0.840043165890314   0.122173073499610   0.646462959259537   1.0
Br4   Br   0.160623925985547   0.487909073543314   0.470767459508423   1.0
N5   N   0.565349200821018   0.478514004186522   0.196977837785248   1.0
H6   H   0.685799085863479   0.468501853958031   0.376852865863370   1.0
H7   H   0.572505267866617   0.326605866553543   0.014022173716263   1.0
H8   H   0.450249145162417   0.495206275549052   0.294741450728942   1.0
H9   H   0.551058142275153   0.616891251267042   0.103290542077097   1.0




# HOIP entry ID:                    1200
# Khazana ID:                       3050
# Organic cation source:            T.D.Huan et al., Phys. Rev. B 93,094105(2016)
# Label:                            Ammonium Lead Bromide
# Material class:                   Hybrid organic-inorganic perovskite ( MC_ino )
# Geometry class:                   Bulk crystalline materials ( GC_cry )
# Organic cation chemical formula:  NH4
# Number of atom types:             4
# Total number of atoms:            9
# Atom types:                        H N  Pb Br
# Number of each atom:               4 1  1 3
# Bandgap, HSE06 (eV):              4.0176
# Bandgap, GGA (eV):                2.8513
# Kpoint for VBM:                   0.5, 0.5, 0
# Kpoint for CBM:                   0.5, 0.5, 0
# Dielectric constant, electronic:  4.1087
# Dielectric constant, ionic:       10.1867
# Dielectric constant, total:       14.2955
# Refractive index:                 2.027
# Atomization energy (eV/atom):     -3.7446
# Relative energy1 (eV/atom):       0.4211
# Relative energy2 (eV/atom):       0.8164
# Volume of the unit cell (A^3):    185.61
# Density (g/cm^3):                 4.149
# Tool:                             VASP
# Pseudopotential:                  PAW
# Note:                             ENCUT=400eV, k-spacing_relax=0.20/Angstrom, k-spacing_bandgap=0.15/Angstrom
# Created by:                       C.Kim, T.D.Huan, S.Krishnan, R. Ramprasad