data_1
_audit_creation_method   'Generated by vasp2cif'
_cell_length_a    4.40254936593
_cell_length_b    6.24674466809
_cell_length_c    7.54508380299
_cell_angle_alpha    75.2488221687
_cell_angle_beta    74.0591976723
_cell_angle_gamma    71.7724600381

_symmetry_space_group_name_H-M    'P 1'
loop_
_atom_site_label
_atom_site_type_symbol
_atom_site_fract_x
_atom_site_fract_y
_atom_site_fract_z
_atom_site_occupancy
Pb1   Pb   0.761913262993602   0.003485020824044   0.141350502727889   1.0
Br2   Br   0.132361649723130   0.936037608200564   0.466094937636022   1.0
Br3   Br   0.342802190777292   0.125895321189432   0.846198376345171   1.0
Br4   Br   0.518568987073230   0.489886621444675   0.165769160369386   1.0
N5   N   0.798815896198064   0.475871149473455   0.566134284995854   1.0
H6   H   0.618526011708461   0.462979790864637   0.685946068296722   1.0
H7   H   0.982120938873337   0.324493357690393   0.572364179148899   1.0
H8   H   0.701618979759616   0.494992478876064   0.450471326666644   1.0
H9   H   0.891722082893260   0.613778651436661   0.553991163813372   1.0




# HOIP entry ID:                    1201
# Khazana ID:                       3051
# Organic cation source:            T.D.Huan et al., Phys. Rev. B 93,094105(2016)
# Label:                            Ammonium Lead Bromide
# Material class:                   Hybrid organic-inorganic perovskite ( MC_ino )
# Geometry class:                   Bulk crystalline materials ( GC_cry )
# Organic cation chemical formula:  NH4
# Number of atom types:             4
# Total number of atoms:            9
# Atom types:                        H N  Pb Br
# Number of each atom:               4 1  1 3
# Bandgap, HSE06 (eV):              4.0772
# Bandgap, GGA (eV):                3.0347
# Kpoint for VBM:                   0, -0.2857, 0.4167
# Kpoint for CBM:                   0, -0.4286, 0.4167
# Dielectric constant, electronic:  4.0878
# Dielectric constant, ionic:       9.5469
# Dielectric constant, total:       13.6347
# Refractive index:                 2.0218
# Atomization energy (eV/atom):     -3.7448
# Relative energy1 (eV/atom):       0.421
# Relative energy2 (eV/atom):       0.8162
# Volume of the unit cell (A^3):    186.25
# Density (g/cm^3):                 4.1347
# Tool:                             VASP
# Pseudopotential:                  PAW
# Note:                             ENCUT=400eV, k-spacing_relax=0.20/Angstrom, k-spacing_bandgap=0.15/Angstrom
# Created by:                       C.Kim, T.D.Huan, S.Krishnan, R. Ramprasad