data_1
_audit_creation_method   'Generated by vasp2cif'
_cell_length_a    6.18781083845
_cell_length_b    6.31593421381
_cell_length_c    6.43362422487
_cell_angle_alpha    87.470691037
_cell_angle_beta    88.7705616578
_cell_angle_gamma    97.9662499129

_symmetry_space_group_name_H-M    'P 1'
loop_
_atom_site_label
_atom_site_type_symbol
_atom_site_fract_x
_atom_site_fract_y
_atom_site_fract_z
_atom_site_occupancy
C1   C   0.648601070594395   0.330193649557493   0.534228931760509   1.0
C2   C   0.432193646372205   0.583312544591955   0.707458290356556   1.0
C3   C   0.377292874364471   0.511523218881678   0.336097579033243   1.0
H4   H   0.769167804791849   0.356103765600743   0.654465757893213   1.0
H5   H   0.553158165082706   0.599384420493550   0.827875287548480   1.0
H6   H   0.459897506418088   0.478036873289817   0.192807102591075   1.0
H7   H   0.310623453373466   0.661399290724894   0.320080327655596   1.0
H8   H   0.364611502493119   0.731926952984637   0.680008984727394   1.0
H9   H   0.663505432871013   0.655906891734709   0.468868886405431   1.0
H10   H   0.249522172075366   0.379991352903886   0.382221287111129   1.0
H11   H   0.522956915461364   0.196993381785340   0.580612823365890   1.0
H12   H   0.301989020128119   0.453166976788523   0.749593586795221   1.0
H13   H   0.725170602776764   0.303644016041346   0.386196494298453   1.0
Br14   Br   0.474448743837485   0.032746814636845   0.040234846223996   1.0
Br15   Br   0.936850656989527   0.522128190114323   0.029060867005739   1.0
Br16   Br   0.986510325661840   0.941579882135734   0.511212843387611   1.0
N17   N   0.540833397676117   0.530203425657781   0.507716614341845   1.0
Pb18   Pb   0.990766709032073   0.988818352076819   0.034119489498558   1.0




# HOIP entry ID:                    1202
# Khazana ID:                       3052
# Organic cation source:            A. Mancini et al., J. Solid State Chem. 240, 55 (2016)
# Label:                            Trimethylammonium Lead Bromide
# Material class:                   Hybrid organic-inorganic perovskite ( MC_ino )
# Geometry class:                   Bulk crystalline materials ( GC_cry )
# Organic cation chemical formula:  (CH3)3NH
# Number of atom types:             5
# Total number of atoms:            18
# Atom types:                       C H N  Pb Br
# Number of each atom:              3 10 1  1 3
# Bandgap, HSE06 (eV):              2.9874
# Bandgap, GGA (eV):                2.0668
# Kpoint for VBM:                   0.5, 0.5, 0.5
# Kpoint for CBM:                   0.5, 0.5, 0.5
# Dielectric constant, electronic:  4.0166
# Dielectric constant, ionic:       13.5936
# Dielectric constant, total:       17.6103
# Refractive index:                 2.0042
# Atomization energy (eV/atom):     -4.3943
# Relative energy1 (eV/atom):       0.0192
# Relative energy2 (eV/atom):       0.2168
# Volume of the unit cell (A^3):    248.67
# Density (g/cm^3):                 3.3779
# Tool:                             VASP
# Pseudopotential:                  PAW
# Note:                             ENCUT=400eV, k-spacing_relax=0.20/Angstrom, k-spacing_bandgap=0.15/Angstrom
# Created by:                       C.Kim, T.D.Huan, S.Krishnan, R. Ramprasad