data_1
_audit_creation_method   'Generated by vasp2cif'
_cell_length_a    6.15075874638
_cell_length_b    6.30149190286
_cell_length_c    6.49797067996
_cell_angle_alpha    90.0009896246
_cell_angle_beta    90.3427835478
_cell_angle_gamma    98.8880672591

_symmetry_space_group_name_H-M    'P 1'
loop_
_atom_site_label
_atom_site_type_symbol
_atom_site_fract_x
_atom_site_fract_y
_atom_site_fract_z
_atom_site_occupancy
C1   C   0.630887068915158   0.327486719498111   0.474204151805431   1.0
C2   C   0.379848074295552   0.535167408163176   0.665073350066180   1.0
C3   C   0.391672451086059   0.550170317787412   0.285664814000789   1.0
H4   H   0.726954955361393   0.323273185860785   0.614502309330646   1.0
H5   H   0.477771266493200   0.520119218282254   0.802599814053458   1.0
H6   H   0.497930293352503   0.546379199187015   0.153014555563210   1.0
H7   H   0.326853066246592   0.701037319686229   0.293328981937606   1.0
H8   H   0.315886392041776   0.686706218227492   0.664018232106251   1.0
H9   H   0.650653205002619   0.658733712714621   0.485654514842892   1.0
H10   H   0.257744991240500   0.415232187781292   0.281618049330305   1.0
H11   H   0.500778425048644   0.188989832663992   0.465322797471558   1.0
H12   H   0.246109645476089   0.400505916424940   0.652560473039401   1.0
H13   H   0.735395645514103   0.335963274469414   0.339285892241023   1.0
Br14   Br   0.450472163351613   0.039268443239244   0.970024792816609   1.0
Br15   Br   0.922153372014790   0.519350838211821   0.971422230757859   1.0
Br16   Br   0.975581591742163   0.947036074482504   0.465503160458198   1.0
N17   N   0.524458297053691   0.528583535555903   0.478691075859075   1.0
Pb18   Pb   0.966999095763583   0.985176597763761   0.995000804319588   1.0




# HOIP entry ID:                    1203
# Khazana ID:                       3053
# Organic cation source:            A. Mancini et al., J. Solid State Chem. 240, 55 (2016)
# Label:                            Trimethylammonium Lead Bromide
# Material class:                   Hybrid organic-inorganic perovskite ( MC_ino )
# Geometry class:                   Bulk crystalline materials ( GC_cry )
# Organic cation chemical formula:  (CH3)3NH
# Number of atom types:             5
# Total number of atoms:            18
# Atom types:                       C H N  Pb Br
# Number of each atom:              3 10 1  1 3
# Bandgap, HSE06 (eV):              2.9537
# Bandgap, GGA (eV):                2.0366
# Kpoint for VBM:                   0.5, 0.5, 0.5
# Kpoint for CBM:                   0.5, 0.5, 0.5
# Dielectric constant, electronic:  3.9876
# Dielectric constant, ionic:       11.772
# Dielectric constant, total:       15.7596
# Refractive index:                 1.9969
# Atomization energy (eV/atom):     -4.3943
# Relative energy1 (eV/atom):       0.0192
# Relative energy2 (eV/atom):       0.2168
# Volume of the unit cell (A^3):    248.83
# Density (g/cm^3):                 3.3757
# Tool:                             VASP
# Pseudopotential:                  PAW
# Note:                             ENCUT=400eV, k-spacing_relax=0.20/Angstrom, k-spacing_bandgap=0.15/Angstrom
# Created by:                       C.Kim, T.D.Huan, S.Krishnan, R. Ramprasad