data_1
_audit_creation_method   'Generated by vasp2cif'
_cell_length_a    6.2350143552
_cell_length_b    6.25432158162
_cell_length_c    6.37437582597
_cell_angle_alpha    95.0481708421
_cell_angle_beta    87.2143609503
_cell_angle_gamma    84.4924394283

_symmetry_space_group_name_H-M    'P 1'
loop_
_atom_site_label
_atom_site_type_symbol
_atom_site_fract_x
_atom_site_fract_y
_atom_site_fract_z
_atom_site_occupancy
C1   C   0.341883182173106   0.331413677074501   0.480302022127972   1.0
C2   C   0.547303808525434   0.609449104038710   0.324590188317231   1.0
C3   C   0.654594827639265   0.467802723603541   0.661189918939499   1.0
H4   H   0.197532672584870   0.385735274535015   0.402508537417795   1.0
H5   H   0.410400490109865   0.641311872837257   0.229149040225089   1.0
H6   H   0.588799817666704   0.429466307436563   0.813074630838436   1.0
H7   H   0.746910315815668   0.605959769763686   0.679174247290092   1.0
H8   H   0.622212618018324   0.756220323005529   0.367099884778114   1.0
H9   H   0.365424859007760   0.644249595976866   0.606826088822181   1.0
H10   H   0.753449969599345   0.327902358130224   0.581490057779135   1.0
H11   H   0.443074930754136   0.210078364914473   0.376756256232063   1.0
H12   H   0.666048090454666   0.487975958732626   0.241486733974760   1.0
H13   H   0.300552960287746   0.269857473858757   0.629111884690978   1.0
Br14   Br   0.511973317011176   0.993012181569171   0.950275202618919   1.0
Br15   Br   0.068455679320145   0.504163818618970   0.992307748433639   1.0
Br16   Br   0.023586164241429   0.919425040627125   0.516747638516314   1.0
N17   N   0.468932609050981   0.522828511522221   0.525266778146033   1.0
Pb18   Pb   0.006323687739368   0.980617643754748   0.988643140851948   1.0




# HOIP entry ID:                    1204
# Khazana ID:                       3054
# Organic cation source:            A. Mancini et al., J. Solid State Chem. 240, 55 (2016)
# Label:                            Trimethylammonium Lead Bromide
# Material class:                   Hybrid organic-inorganic perovskite ( MC_ino )
# Geometry class:                   Bulk crystalline materials ( GC_cry )
# Organic cation chemical formula:  (CH3)3NH
# Number of atom types:             5
# Total number of atoms:            18
# Atom types:                       C H N  Pb Br
# Number of each atom:              3 10 1  1 3
# Bandgap, HSE06 (eV):              3.2041
# Bandgap, GGA (eV):                2.2716
# Kpoint for VBM:                   0.5, 0.5, 0.5
# Kpoint for CBM:                   0.4474, 0.5, 0.4474
# Dielectric constant, electronic:  4.0927
# Dielectric constant, ionic:       25.38
# Dielectric constant, total:       29.4726
# Refractive index:                 2.023
# Atomization energy (eV/atom):     -4.3935
# Relative energy1 (eV/atom):       0.02
# Relative energy2 (eV/atom):       0.2176
# Volume of the unit cell (A^3):    246.06
# Density (g/cm^3):                 3.4137
# Tool:                             VASP
# Pseudopotential:                  PAW
# Note:                             ENCUT=400eV, k-spacing_relax=0.20/Angstrom, k-spacing_bandgap=0.15/Angstrom
# Created by:                       C.Kim, T.D.Huan, S.Krishnan, R. Ramprasad