data_1
_audit_creation_method   'Generated by vasp2cif'
_cell_length_a    6.32637334305
_cell_length_b    6.26702048105
_cell_length_c    6.258288409
_cell_angle_alpha    94.9508334269
_cell_angle_beta    93.7812018577
_cell_angle_gamma    95.0615793267

_symmetry_space_group_name_H-M    'P 1'
loop_
_atom_site_label
_atom_site_type_symbol
_atom_site_fract_x
_atom_site_fract_y
_atom_site_fract_z
_atom_site_occupancy
C1   C   0.475293006365014   0.329887906617785   0.652553695579108   1.0
C2   C   0.335907616820364   0.623814038978466   0.454689050388978   1.0
C3   C   0.657175583389908   0.455494411969362   0.338184173256060   1.0
H4   H   0.408264378512413   0.389300764743886   0.799625545610809   1.0
H5   H   0.245523590708459   0.656791490147270   0.593186292619954   1.0
H6   H   0.808159314164300   0.405937385713891   0.400566345520247   1.0
H7   H   0.681712098096710   0.592840708561454   0.245545823306436   1.0
H8   H   0.387494964377574   0.771448793329512   0.385346769963618   1.0
H9   H   0.626478212349220   0.632874305159589   0.628158720999934   1.0
H10   H   0.565475155889416   0.321241401976160   0.241359513444046   1.0
H11   H   0.357781322957010   0.219137822939970   0.553857631501231   1.0
H12   H   0.242426780019585   0.512581159442242   0.333217844610189   1.0
H13   H   0.619091910551496   0.253543794130834   0.688014708679241   1.0
Br14   Br   0.941056779859387   0.978830751748838   0.497632846016984   1.0
Br15   Br   0.992036559088206   0.499904774957464   0.926966573806531   1.0
Br16   Br   0.516742749529101   0.916928251849463   0.976735655164632   1.0
N17   N   0.531542101014388   0.519533705190256   0.526633926752403   1.0
Pb18   Pb   0.991957876307360   0.978478532543470   0.985984882779483   1.0




# HOIP entry ID:                    1205
# Khazana ID:                       3055
# Organic cation source:            A. Mancini et al., J. Solid State Chem. 240, 55 (2016)
# Label:                            Trimethylammonium Lead Bromide
# Material class:                   Hybrid organic-inorganic perovskite ( MC_ino )
# Geometry class:                   Bulk crystalline materials ( GC_cry )
# Organic cation chemical formula:  (CH3)3NH
# Number of atom types:             5
# Total number of atoms:            18
# Atom types:                       C H N  Pb Br
# Number of each atom:              3 10 1  1 3
# Bandgap, HSE06 (eV):              3.3189
# Bandgap, GGA (eV):                2.4214
# Kpoint for VBM:                   0.5, 0.5, 0.5
# Kpoint for CBM:                   0.5, 0.5, 0.4211
# Dielectric constant, electronic:  4.0963
# Dielectric constant, ionic:       20.3801
# Dielectric constant, total:       24.4764
# Refractive index:                 2.0239
# Atomization energy (eV/atom):     -4.3934
# Relative energy1 (eV/atom):       0.0202
# Relative energy2 (eV/atom):       0.2178
# Volume of the unit cell (A^3):    245.56
# Density (g/cm^3):                 3.4206
# Tool:                             VASP
# Pseudopotential:                  PAW
# Note:                             ENCUT=400eV, k-spacing_relax=0.20/Angstrom, k-spacing_bandgap=0.15/Angstrom
# Created by:                       C.Kim, T.D.Huan, S.Krishnan, R. Ramprasad