data_1
_audit_creation_method   'Generated by vasp2cif'
_cell_length_a    4.63202654777
_cell_length_b    7.96461721214
_cell_length_c    7.43386593264
_cell_angle_alpha    102.980141634
_cell_angle_beta    74.8251545592
_cell_angle_gamma    87.8992667133

_symmetry_space_group_name_H-M    'P 1'
loop_
_atom_site_label
_atom_site_type_symbol
_atom_site_fract_x
_atom_site_fract_y
_atom_site_fract_z
_atom_site_occupancy
C1   C   0.503454873841058   0.574795619284195   0.372970384981251   1.0
C2   C   0.731012625092866   0.781281787357763   0.590730962190193   1.0
C3   C   0.706515720464786   0.471733818915304   0.613161414251984   1.0
H4   H   0.398392009053403   0.687262685046377   0.344953089798871   1.0
H5   H   0.931488079872516   0.756914129881743   0.469498746241236   1.0
H6   H   0.561830698232441   0.367005433659493   0.607846250174887   1.0
H7   H   0.738845064036305   0.511659084294088   0.755982328044446   1.0
H8   H   0.590264833943024   0.893137658979533   0.589400916737119   1.0
H9   H   0.352849863336615   0.657981689163726   0.675647606917451   1.0
H10   H   0.921855224863826   0.431260298017918   0.504970415627234   1.0
H11   H   0.720742578718450   0.534703348732393   0.266283251116448   1.0
H12   H   0.787797488687495   0.801116340091255   0.726613769803919   1.0
H13   H   0.363476496844797   0.467934639346083   0.367804665261957   1.0
Br14   Br   0.457338169774154   0.215510779847776   0.951008483217500   1.0
Br15   Br   0.070009008415312   0.711920280955205   0.002864048995093   1.0
Br16   Br   0.240423152087970   0.088643339005252   0.461832397122336   1.0
N17   N   0.556560053135570   0.624110862548619   0.569703135907865   1.0
Pb18   Pb   0.902404059599505   0.080608204873378   0.158068133610257   1.0




# HOIP entry ID:                    1208
# Khazana ID:                       3058
# Organic cation source:            A. Mancini et al., J. Solid State Chem. 240, 55 (2016)
# Label:                            Trimethylammonium Lead Bromide
# Material class:                   Hybrid organic-inorganic perovskite ( MC_ino )
# Geometry class:                   Bulk crystalline materials ( GC_cry )
# Organic cation chemical formula:  (CH3)3NH
# Number of atom types:             5
# Total number of atoms:            18
# Atom types:                       C H N  Pb Br
# Number of each atom:              3 10 1  1 3
# Bandgap, HSE06 (eV):              3.7321
# Bandgap, GGA (eV):                2.7809
# Kpoint for VBM:                   0.3333, 0, 0.25
# Kpoint for CBM:                   0, 0, 0.4167
# Dielectric constant, electronic:  3.4307
# Dielectric constant, ionic:       4.7575
# Dielectric constant, total:       8.1882
# Refractive index:                 1.8522
# Atomization energy (eV/atom):     -4.3779
# Relative energy1 (eV/atom):       0.0357
# Relative energy2 (eV/atom):       0.2333
# Volume of the unit cell (A^3):    256.59
# Density (g/cm^3):                 3.2736
# Tool:                             VASP
# Pseudopotential:                  PAW
# Note:                             ENCUT=400eV, k-spacing_relax=0.20/Angstrom, k-spacing_bandgap=0.15/Angstrom
# Created by:                       C.Kim, T.D.Huan, S.Krishnan, R. Ramprasad