data_1
_audit_creation_method   'Generated by vasp2cif'
_cell_length_a    6.63773172982
_cell_length_b    4.71528295126
_cell_length_c    8.21294256302
_cell_angle_alpha    90.5012535393
_cell_angle_beta    94.2141696272
_cell_angle_gamma    74.7355662095

_symmetry_space_group_name_H-M    'P 1'
loop_
_atom_site_label
_atom_site_type_symbol
_atom_site_fract_x
_atom_site_fract_y
_atom_site_fract_z
_atom_site_occupancy
C1   C   0.532088362412864   0.868330796204532   0.408051409707006   1.0
C2   C   0.433332312956878   0.911747507791397   0.698117059125629   1.0
C3   C   0.274575787046501   0.615359205547854   0.501971751581863   1.0
H4   H   0.594445953900049   0.058142791806738   0.428632763175130   1.0
H5   H   0.302102276013656   0.934556541551935   0.772823040580107   1.0
H6   H   0.231297489299259   0.590031561837506   0.373448225663644   1.0
H7   H   0.139824506403841   0.644344584017851   0.574805256750409   1.0
H8   H   0.555412134144518   0.712126233448643   0.730540755456140   1.0
H9   H   0.234639683629368   0.059403574923486   0.486511426954543   1.0
H10   H   0.400943196525709   0.429724768372807   0.546801438268048   1.0
H11   H   0.654906583954777   0.666869889796146   0.436540865386945   1.0
H12   H   0.496022102680527   0.102156914282503   0.710827738095169   1.0
H13   H   0.466493111550903   0.866786249220667   0.282532316152874   1.0
Br14   Br   0.933420476451673   0.196209616741903   0.261638572755970   1.0
Br15   Br   0.891284120904729   0.215853452749343   0.742134432235126   1.0
Br16   Br   0.368832031369614   0.466386471776509   0.033475818803737   1.0
N17   N   0.359251721189835   0.881954530168834   0.521431283361281   1.0
Pb18   Pb   0.924818149565432   0.670695309761328   0.007835845946552   1.0




# HOIP entry ID:                    1210
# Khazana ID:                       3060
# Organic cation source:            A. Mancini et al., J. Solid State Chem. 240, 55 (2016)
# Label:                            Trimethylammonium Lead Bromide
# Material class:                   Hybrid organic-inorganic perovskite ( MC_ino )
# Geometry class:                   Bulk crystalline materials ( GC_cry )
# Organic cation chemical formula:  (CH3)3NH
# Number of atom types:             5
# Total number of atoms:            18
# Atom types:                       C H N  Pb Br
# Number of each atom:              3 10 1  1 3
# Bandgap, HSE06 (eV):              4.0025
# Bandgap, GGA (eV):                2.9726
# Kpoint for VBM:                   0.1667, 0.1667, 0.5
# Kpoint for CBM:                   0.4167, 0, 0.4
# Dielectric constant, electronic:  3.5694
# Dielectric constant, ionic:       6.3687
# Dielectric constant, total:       9.9381
# Refractive index:                 1.8893
# Atomization energy (eV/atom):     -4.3835
# Relative energy1 (eV/atom):       0.03
# Relative energy2 (eV/atom):       0.2276
# Volume of the unit cell (A^3):    247.3
# Density (g/cm^3):                 3.3966
# Tool:                             VASP
# Pseudopotential:                  PAW
# Note:                             ENCUT=400eV, k-spacing_relax=0.20/Angstrom, k-spacing_bandgap=0.15/Angstrom
# Created by:                       C.Kim, T.D.Huan, S.Krishnan, R. Ramprasad