data_1
_audit_creation_method   'Generated by vasp2cif'
_cell_length_a    6.27815178609
_cell_length_b    6.12195586779
_cell_length_c    6.19986729521
_cell_angle_alpha    89.9809484068
_cell_angle_beta    89.5210197446
_cell_angle_gamma    89.1904257923

_symmetry_space_group_name_H-M    'P 1'
loop_
_atom_site_label
_atom_site_type_symbol
_atom_site_fract_x
_atom_site_fract_y
_atom_site_fract_z
_atom_site_occupancy
Br1   Br   0.007583276972632   0.990847467190477   0.560753187284924   1.0
Br2   Br   0.518757484021776   0.062021191874976   0.061197324468914   1.0
Br3   Br   0.024903347035583   0.537522587125309   0.060364080836742   1.0
H4   H   0.370976949057770   0.834015477338667   0.566192295138642   1.0
H5   H   0.672746026621859   0.570158806073366   0.303997453065172   1.0
H6   H   0.638706962852893   0.851897513244460   0.559325798649525   1.0
H7   H   0.338839720255969   0.315125842967653   0.565643067871946   1.0
H8   H   0.683307743700439   0.568006096061850   0.809008646856874   1.0
H9   H   0.401679784566170   0.585322073043663   0.857446098136812   1.0
H10   H   0.389364698053747   0.587989746475344   0.273043109497451   1.0
H11   H   0.619025377541732   0.261314914615483   0.557376216760311   1.0
C12   C   0.526345058719919   0.565255023593991   0.736503193125067   1.0
C13   C   0.519131460329717   0.566832078561006   0.386002342281380   1.0
C14   C   0.496154023691695   0.388459657667404   0.561397993784624   1.0
Pb15   Pb   0.008055110313691   0.051127331396643   0.060919098208188   1.0
N16   N   0.512462976264509   0.746154192769737   0.562240094033484   1.0




# HOIP entry ID:                    1211
# Khazana ID:                       3061
# Organic cation source:            B. Zhou et al., Angew. Chem. Int. Ed. 50, 11441 (2011)
# Label:                            Azetidinium Lead Bromide
# Material class:                   Hybrid organic-inorganic perovskite ( MC_ino )
# Geometry class:                   Bulk crystalline materials ( GC_cry )
# Organic cation chemical formula:  C3H6N2
# Number of atom types:             5
# Total number of atoms:            16
# Atom types:                       C H N  Pb Br
# Number of each atom:              3 8 1  1 3
# Bandgap, HSE06 (eV):              2.8647
# Bandgap, GGA (eV):                1.9129
# Kpoint for VBM:                   0.5, 0.5, 0.5
# Kpoint for CBM:                   0.5, 0.5, 0.5
# Dielectric constant, electronic:  4.2614
# Dielectric constant, ionic:       23.361
# Dielectric constant, total:       27.6224
# Refractive index:                 2.0643
# Atomization energy (eV/atom):     -4.4568
# Relative energy1 (eV/atom):       0.0546
# Relative energy2 (eV/atom):       0.2769
# Volume of the unit cell (A^3):    238.26
# Density (g/cm^3):                 3.5114
# Tool:                             VASP
# Pseudopotential:                  PAW
# Note:                             ENCUT=400eV, k-spacing_relax=0.20/Angstrom, k-spacing_bandgap=0.15/Angstrom
# Created by:                       C.Kim, T.D.Huan, S.Krishnan, R. Ramprasad