data_1
_audit_creation_method   'Generated by vasp2cif'
_cell_length_a    6.20215063122
_cell_length_b    6.22583651367
_cell_length_c    6.13354619777
_cell_angle_alpha    93.163381764
_cell_angle_beta    90.0363581492
_cell_angle_gamma    94.1454974532

_symmetry_space_group_name_H-M    'P 1'
loop_
_atom_site_label
_atom_site_type_symbol
_atom_site_fract_x
_atom_site_fract_y
_atom_site_fract_z
_atom_site_occupancy
Br1   Br   0.498066688873646   0.044847683692197   0.051559206375036   1.0
Br2   Br   0.002645280685992   0.054530007452780   0.503265391332608   1.0
Br3   Br   0.005212068291896   0.547606111029777   0.995620010376905   1.0
H4   H   0.451458313810009   0.435727212102707   0.207968795957642   1.0
H5   H   0.790122743937028   0.650942024202287   0.495387304324842   1.0
H6   H   0.522188827469752   0.701640296794702   0.228422169914576   1.0
H7   H   0.454592841154281   0.339474131852634   0.708677525990619   1.0
H8   H   0.307028898754787   0.760969081412635   0.534663970499548   1.0
H9   H   0.181780820928680   0.495609815591162   0.476227272174016   1.0
H10   H   0.742028469042043   0.367266183851842   0.430027693904810   1.0
H11   H   0.537596538205333   0.607009079568050   0.808981080227134   1.0
C12   C   0.333401524573964   0.590798834547047   0.507646643767500   1.0
C13   C   0.669369736297828   0.515363973218035   0.479906093563591   1.0
C14   C   0.498263368933663   0.503738910191522   0.663425492588524   1.0
Pb15   Pb   0.994545670108340   0.049205453847456   0.991566890142211   1.0
N16   N   0.492948208932875   0.565251200645207   0.315224458860382   1.0




# HOIP entry ID:                    1212
# Khazana ID:                       3062
# Organic cation source:            B. Zhou et al., Angew. Chem. Int. Ed. 50, 11441 (2011)
# Label:                            Azetidinium Lead Bromide
# Material class:                   Hybrid organic-inorganic perovskite ( MC_ino )
# Geometry class:                   Bulk crystalline materials ( GC_cry )
# Organic cation chemical formula:  C3H6N2
# Number of atom types:             5
# Total number of atoms:            16
# Atom types:                       C H N  Pb Br
# Number of each atom:              3 8 1  1 3
# Bandgap, HSE06 (eV):              2.7635
# Bandgap, GGA (eV):                1.8915
# Kpoint for VBM:                   0.5, 0.5, 0.5
# Kpoint for CBM:                   0.5, 0.5, 0.5
# Dielectric constant, electronic:  4.3169
# Dielectric constant, ionic:       29.2146
# Dielectric constant, total:       33.5315
# Refractive index:                 2.0777
# Atomization energy (eV/atom):     -4.4556
# Relative energy1 (eV/atom):       0.0558
# Relative energy2 (eV/atom):       0.2781
# Volume of the unit cell (A^3):    235.86
# Density (g/cm^3):                 3.5471
# Tool:                             VASP
# Pseudopotential:                  PAW
# Note:                             ENCUT=400eV, k-spacing_relax=0.20/Angstrom, k-spacing_bandgap=0.15/Angstrom
# Created by:                       C.Kim, T.D.Huan, S.Krishnan, R. Ramprasad