data_1
_audit_creation_method   'Generated by vasp2cif'
_cell_length_a    6.19090225087
_cell_length_b    6.16001072355
_cell_length_c    6.21213475003
_cell_angle_alpha    87.1206812908
_cell_angle_beta    83.77561629
_cell_angle_gamma    93.1461140223

_symmetry_space_group_name_H-M    'P 1'
loop_
_atom_site_label
_atom_site_type_symbol
_atom_site_fract_x
_atom_site_fract_y
_atom_site_fract_z
_atom_site_occupancy
Br1   Br   0.009261643339769   0.055721439916233   0.530942760832957   1.0
Br2   Br   0.530901894318333   0.058580113339865   0.048225940485679   1.0
Br3   Br   0.055266666434647   0.575545739038674   0.010701839019788   1.0
H4   H   0.370598513489384   0.809899160930343   0.703860094928466   1.0
H5   H   0.396498582844963   0.650716481599268   0.275789614005042   1.0
H6   H   0.574243274470888   0.877557512495791   0.507907091404810   1.0
H7   H   0.488882788990928   0.259116002882713   0.557061848852193   1.0
H8   H   0.788738783595370   0.628741491783160   0.674865531688063   1.0
H9   H   0.550832441933572   0.518476903631168   0.843217431768650   1.0
H10   H   0.218770806625152   0.537086159747922   0.505403644116257   1.0
H11   H   0.687228445910648   0.410237883968918   0.370246944165430   1.0
C12   C   0.619599338713961   0.570895018545855   0.678979390989866   1.0
C13   C   0.386463488036121   0.583964811949343   0.441669421505722   1.0
C14   C   0.555916552282063   0.421376562879431   0.500128350365443   1.0
Pb15   Pb   0.022031327309875   0.087343393761699   0.042214569116915   1.0
N16   N   0.481435451704343   0.749771323529671   0.590585526754680   1.0




# HOIP entry ID:                    1213
# Khazana ID:                       3063
# Organic cation source:            B. Zhou et al., Angew. Chem. Int. Ed. 50, 11441 (2011)
# Label:                            Azetidinium Lead Bromide
# Material class:                   Hybrid organic-inorganic perovskite ( MC_ino )
# Geometry class:                   Bulk crystalline materials ( GC_cry )
# Organic cation chemical formula:  C3H6N2
# Number of atom types:             5
# Total number of atoms:            16
# Atom types:                       C H N  Pb Br
# Number of each atom:              3 8 1  1 3
# Bandgap, HSE06 (eV):              2.7591
# Bandgap, GGA (eV):                1.8617
# Kpoint for VBM:                   0.5, 0.5, 0.5
# Kpoint for CBM:                   0.5, 0.5, 0.5
# Dielectric constant, electronic:  4.3032
# Dielectric constant, ionic:       26.8709
# Dielectric constant, total:       31.174
# Refractive index:                 2.0744
# Atomization energy (eV/atom):     -4.4527
# Relative energy1 (eV/atom):       0.0587
# Relative energy2 (eV/atom):       0.281
# Volume of the unit cell (A^3):    234.78
# Density (g/cm^3):                 3.5634
# Tool:                             VASP
# Pseudopotential:                  PAW
# Note:                             ENCUT=400eV, k-spacing_relax=0.20/Angstrom, k-spacing_bandgap=0.15/Angstrom
# Created by:                       C.Kim, T.D.Huan, S.Krishnan, R. Ramprasad