data_1
_audit_creation_method   'Generated by vasp2cif'
_cell_length_a    8.49641139657
_cell_length_b    6.16919554384
_cell_length_c    4.69499231441
_cell_angle_alpha    90.3167381306
_cell_angle_beta    83.8442161884
_cell_angle_gamma    89.8613857893

_symmetry_space_group_name_H-M    'P 1'
loop_
_atom_site_label
_atom_site_type_symbol
_atom_site_fract_x
_atom_site_fract_y
_atom_site_fract_z
_atom_site_occupancy
Br1   Br   0.770726927847448   0.659210108249461   0.217987664400866   1.0
Br2   Br   0.023294508541532   0.157593715294254   0.697778125785980   1.0
Br3   Br   0.273135275953201   0.657176368918009   0.130344945481148   1.0
H4   H   0.598341894869115   0.012517518429640   0.076997006563907   1.0
H5   H   0.325952450060065   0.292746746608316   0.003058316874274   1.0
H6   H   0.328138895771680   0.018762089947401   0.001042034306110   1.0
H7   H   0.387760626592410   0.010238058827660   0.507132674949382   1.0
H8   H   0.382783018504888   0.301328236898584   0.509347703114592   1.0
H9   H   0.671066467329453   0.308317977375559   0.562734498848421   1.0
H10   H   0.676648855539540   0.021033008057728   0.556143224195175   1.0
H11   H   0.595162597241469   0.304618656067390   0.083482426496701   1.0
C12   C   0.431533992763896   0.157266275628302   0.600777418822716   1.0
C13   C   0.566251406266730   0.158955720730404   0.968889110349792   1.0
C14   C   0.610262252999853   0.162114067632615   0.641522294542256   1.0
Pb15   Pb   0.006512115416548   0.658235595022347   0.675190801039015   1.0
N16   N   0.387938714302116   0.156385856312383   0.926621754229629   1.0




# HOIP entry ID:                    1214
# Khazana ID:                       3064
# Organic cation source:            B. Zhou et al., Angew. Chem. Int. Ed. 50, 11441 (2011)
# Label:                            Azetidinium Lead Bromide
# Material class:                   Hybrid organic-inorganic perovskite ( MC_ino )
# Geometry class:                   Bulk crystalline materials ( GC_cry )
# Organic cation chemical formula:  C3H6N2
# Number of atom types:             5
# Total number of atoms:            16
# Atom types:                       C H N  Pb Br
# Number of each atom:              3 8 1  1 3
# Bandgap, HSE06 (eV):              3.4193
# Bandgap, GGA (eV):                2.1195
# Kpoint for VBM:                   0.5, 0.5, 0.5
# Kpoint for CBM:                   0.5, 0.5, 0
# Dielectric constant, electronic:  3.8259
# Dielectric constant, ionic:       16.5816
# Dielectric constant, total:       20.4076
# Refractive index:                 1.956
# Atomization energy (eV/atom):     -4.4472
# Relative energy1 (eV/atom):       0.0642
# Relative energy2 (eV/atom):       0.2865
# Volume of the unit cell (A^3):    244.67
# Density (g/cm^3):                 3.4194
# Tool:                             VASP
# Pseudopotential:                  PAW
# Note:                             ENCUT=400eV, k-spacing_relax=0.20/Angstrom, k-spacing_bandgap=0.15/Angstrom
# Created by:                       C.Kim, T.D.Huan, S.Krishnan, R. Ramprasad