data_1
_audit_creation_method   'Generated by vasp2cif'
_cell_length_a    8.39973604994
_cell_length_b    6.12422699005
_cell_length_c    4.68762977558
_cell_angle_alpha    93.4943129649
_cell_angle_beta    84.4168896736
_cell_angle_gamma    86.5278481039

_symmetry_space_group_name_H-M    'P 1'
loop_
_atom_site_label
_atom_site_type_symbol
_atom_site_fract_x
_atom_site_fract_y
_atom_site_fract_z
_atom_site_occupancy
Br1   Br   0.214516537440680   0.636779994830334   0.787895427672623   1.0
Br2   Br   0.964987562331622   0.171662688634463   0.261867228807191   1.0
Br3   Br   0.707447773221773   0.696809453034518   0.876736059559043   1.0
H4   H   0.406714799054768   0.995612492385973   0.935351711702999   1.0
H5   H   0.599872889983814   0.365422622921734   0.033937611291883   1.0
H6   H   0.663020781582588   0.099622696520363   0.039528481362275   1.0
H7   H   0.639925571385668   0.143293782166204   0.537648328882142   1.0
H8   H   0.513037988457157   0.389922170410273   0.529243724199745   1.0
H9   H   0.278252625869264   0.155079843327904   0.533258809832610   1.0
H10   H   0.409699908777021   0.915964520096303   0.442189007270670   1.0
H11   H   0.324848245237121   0.271411463548731   0.033811478353925   1.0
C12   C   0.538921440348176   0.220441567629202   0.444198239578988   1.0
C13   C   0.403413623827397   0.136019846883002   0.088842195189947   1.0
C14   C   0.388846530472662   0.089737541808681   0.409295861339146   1.0
Pb15   Pb   0.973803731460869   0.665833209006593   0.332757594365738   1.0
N16   N   0.573129990549404   0.217186106795644   0.115728240591110   1.0




# HOIP entry ID:                    1215
# Khazana ID:                       3065
# Organic cation source:            B. Zhou et al., Angew. Chem. Int. Ed. 50, 11441 (2011)
# Label:                            Azetidinium Lead Bromide
# Material class:                   Hybrid organic-inorganic perovskite ( MC_ino )
# Geometry class:                   Bulk crystalline materials ( GC_cry )
# Organic cation chemical formula:  C3H6N2
# Number of atom types:             5
# Total number of atoms:            16
# Atom types:                       C H N  Pb Br
# Number of each atom:              3 8 1  1 3
# Bandgap, HSE06 (eV):              3.4696
# Bandgap, GGA (eV):                2.2172
# Kpoint for VBM:                   0.5, 0.5, 0.3158
# Kpoint for CBM:                   0.5, 0.5, 0
# Dielectric constant, electronic:  3.8637
# Dielectric constant, ionic:       11.4133
# Dielectric constant, total:       15.277
# Refractive index:                 1.9656
# Atomization energy (eV/atom):     -4.4487
# Relative energy1 (eV/atom):       0.0627
# Relative energy2 (eV/atom):       0.285
# Volume of the unit cell (A^3):    239.01
# Density (g/cm^3):                 3.5004
# Tool:                             VASP
# Pseudopotential:                  PAW
# Note:                             ENCUT=400eV, k-spacing_relax=0.20/Angstrom, k-spacing_bandgap=0.15/Angstrom
# Created by:                       C.Kim, T.D.Huan, S.Krishnan, R. Ramprasad