data_1
_audit_creation_method   'Generated by vasp2cif'
_cell_length_a    8.38421776361
_cell_length_b    6.14472880617
_cell_length_c    4.67897242002
_cell_angle_alpha    88.9809345253
_cell_angle_beta    97.5342615547
_cell_angle_gamma    86.1669549887

_symmetry_space_group_name_H-M    'P 1'
loop_
_atom_site_label
_atom_site_type_symbol
_atom_site_fract_x
_atom_site_fract_y
_atom_site_fract_z
_atom_site_occupancy
Br1   Br   0.746289196515121   0.705119388578026   0.144456830749284   1.0
Br2   Br   0.031049291550389   0.177119769939111   0.717084704083831   1.0
Br3   Br   0.249803297016804   0.653942699150392   0.261093757476665   1.0
H4   H   0.655463297142774   0.172661422383854   0.149194205806303   1.0
H5   H   0.311306518414696   0.117341314429503   0.934740184043257   1.0
H6   H   0.461058791910745   0.919904842413239   0.013809420252322   1.0
H7   H   0.530179292424194   0.944393609729467   0.547060207944838   1.0
H8   H   0.356868310809404   0.135346304185170   0.464141645721568   1.0
H9   H   0.527948952072698   0.442955127223257   0.602702545152077   1.0
H10   H   0.702029910930904   0.256047314092079   0.653177501491058   1.0
H11   H   0.491834802024229   0.381806630662361   0.111585131826651   1.0
C12   C   0.468651117908521   0.095155441194351   0.607221438871612   1.0
C13   C   0.551568508963534   0.247811750436036   0.010175356340753   1.0
C14   C   0.577501119504028   0.284411225083581   0.693160637746985   1.0
Pb15   Pb   0.998026186181988   0.680761740532844   0.704807890999511   1.0
N16   N   0.431111406629974   0.072201419966746   0.918848541493304   1.0




# HOIP entry ID:                    1216
# Khazana ID:                       3066
# Organic cation source:            B. Zhou et al., Angew. Chem. Int. Ed. 50, 11441 (2011)
# Label:                            Azetidinium Lead Bromide
# Material class:                   Hybrid organic-inorganic perovskite ( MC_ino )
# Geometry class:                   Bulk crystalline materials ( GC_cry )
# Organic cation chemical formula:  C3H6N2
# Number of atom types:             5
# Total number of atoms:            16
# Atom types:                       C H N  Pb Br
# Number of each atom:              3 8 1  1 3
# Bandgap, HSE06 (eV):              3.5768
# Bandgap, GGA (eV):                2.3528
# Kpoint for VBM:                   0.5, 0.5, 0.2895
# Kpoint for CBM:                   0.5, 0.5, 0
# Dielectric constant, electronic:  3.8709
# Dielectric constant, ionic:       14.7544
# Dielectric constant, total:       18.6252
# Refractive index:                 1.9674
# Atomization energy (eV/atom):     -4.4495
# Relative energy1 (eV/atom):       0.0619
# Relative energy2 (eV/atom):       0.2842
# Volume of the unit cell (A^3):    238.35
# Density (g/cm^3):                 3.5101
# Tool:                             VASP
# Pseudopotential:                  PAW
# Note:                             ENCUT=400eV, k-spacing_relax=0.20/Angstrom, k-spacing_bandgap=0.15/Angstrom
# Created by:                       C.Kim, T.D.Huan, S.Krishnan, R. Ramprasad