data_1
_audit_creation_method   'Generated by vasp2cif'
_cell_length_a    6.07420822444
_cell_length_b    4.39659900595
_cell_length_c    8.81512393765
_cell_angle_alpha    86.2196047822
_cell_angle_beta    91.0140017957
_cell_angle_gamma    92.9238485614

_symmetry_space_group_name_H-M    'P 1'
loop_
_atom_site_label
_atom_site_type_symbol
_atom_site_fract_x
_atom_site_fract_y
_atom_site_fract_z
_atom_site_occupancy
Br1   Br   0.825007566476472   0.805101633393555   0.795614458019827   1.0
Br2   Br   0.351180085308997   0.138302624080389   0.088502778004290   1.0
Br3   Br   0.854337726769295   0.742023597154081   0.296064173313425   1.0
H4   H   0.044910185408646   0.165032603849987   0.498946612480992   1.0
H5   H   0.327291836515144   0.333146462872925   0.326744882914085   1.0
H6   H   0.371429069936298   0.655582624372109   0.411194348799889   1.0
H7   H   0.597511544412811   0.093306709783896   0.478428965943607   1.0
H8   H   0.646564116305193   0.438096137364965   0.572307760643241   1.0
H9   H   0.366872189568895   0.273476729952186   0.764076329927619   1.0
H10   H   0.317376627047487   0.923535305029681   0.679590165306045   1.0
H11   H   0.087862669598650   0.512738411695736   0.591965153024056   1.0
C12   C   0.521651953228933   0.270244828472258   0.537470579041184   1.0
C13   C   0.166473614615882   0.318499964766083   0.550299723510619   1.0
C14   C   0.342764537710437   0.169106424731929   0.655875028190984   1.0
Pb15   Pb   0.846914949572870   0.270688817307395   0.042882884238814   1.0
N16   N   0.346201327524064   0.424597125172767   0.432546156641358   1.0




# HOIP entry ID:                    1217
# Khazana ID:                       3067
# Organic cation source:            B. Zhou et al., Angew. Chem. Int. Ed. 50, 11441 (2011)
# Label:                            Azetidinium Lead Bromide
# Material class:                   Hybrid organic-inorganic perovskite ( MC_ino )
# Geometry class:                   Bulk crystalline materials ( GC_cry )
# Organic cation chemical formula:  C3H6N2
# Number of atom types:             5
# Total number of atoms:            16
# Atom types:                       C H N  Pb Br
# Number of each atom:              3 8 1  1 3
# Bandgap, HSE06 (eV):              4.0273
# Bandgap, GGA (eV):                3.1039
# Kpoint for VBM:                   0.5, 0.1667, 0.5
# Kpoint for CBM:                   0.5, 0.5, 0.5
# Dielectric constant, electronic:  3.856
# Dielectric constant, ionic:       7.1807
# Dielectric constant, total:       11.0367
# Refractive index:                 1.9637
# Atomization energy (eV/atom):     -4.4466
# Relative energy1 (eV/atom):       0.0648
# Relative energy2 (eV/atom):       0.2871
# Volume of the unit cell (A^3):    234.57
# Density (g/cm^3):                 3.5666
# Tool:                             VASP
# Pseudopotential:                  PAW
# Note:                             ENCUT=400eV, k-spacing_relax=0.20/Angstrom, k-spacing_bandgap=0.15/Angstrom
# Created by:                       C.Kim, T.D.Huan, S.Krishnan, R. Ramprasad