data_1
_audit_creation_method   'Generated by vasp2cif'
_cell_length_a    8.95258088905
_cell_length_b    4.49006558169
_cell_length_c    6.27687439419
_cell_angle_alpha    103.079702371
_cell_angle_beta    90.2575959492
_cell_angle_gamma    76.5335390622

_symmetry_space_group_name_H-M    'P 1'
loop_
_atom_site_label
_atom_site_type_symbol
_atom_site_fract_x
_atom_site_fract_y
_atom_site_fract_z
_atom_site_occupancy
Br1   Br   0.197126082675247   0.747192603834264   0.833713051359638   1.0
Br2   Br   0.897686428302222   0.257384755470802   0.437421030990400   1.0
Br3   Br   0.704230483589697   0.006945801685106   0.925651578868838   1.0
H4   H   0.446725846674134   0.519154829825297   0.270447461625274   1.0
H5   H   0.652044411287534   0.699410143977900   0.471539348222734   1.0
H6   H   0.654196264482763   0.951166231999800   0.315045496322412   1.0
H7   H   0.430146420961030   0.042345812357986   0.684925765373805   1.0
H8   H   0.476848848001666   0.340417524017702   0.572329368725384   1.0
H9   H   0.306167140100001   0.207212638073535   0.254708358146559   1.0
H10   H   0.231675955406303   0.988545205832054   0.412515628171363   1.0
H11   H   0.494212549784876   0.712023720001390   0.070610313835715   1.0
C12   C   0.450520697283380   0.110300015471310   0.534190291421112   1.0
C13   C   0.461336343421451   0.739943401917621   0.241341440098225   1.0
C14   C   0.336598436961481   0.034472331099742   0.354804072573032   1.0
Pb15   Pb   0.956447910734596   0.380031537552824   0.905749392124207   1.0
N16   N   0.582246180333563   0.856673446882759   0.394597402141329   1.0




# HOIP entry ID:                    1218
# Khazana ID:                       3068
# Organic cation source:            B. Zhou et al., Angew. Chem. Int. Ed. 50, 11441 (2011)
# Label:                            Azetidinium Lead Bromide
# Material class:                   Hybrid organic-inorganic perovskite ( MC_ino )
# Geometry class:                   Bulk crystalline materials ( GC_cry )
# Organic cation chemical formula:  C3H6N2
# Number of atom types:             5
# Total number of atoms:            16
# Atom types:                       C H N  Pb Br
# Number of each atom:              3 8 1  1 3
# Bandgap, HSE06 (eV):              4.1004
# Bandgap, GGA (eV):                3.0639
# Kpoint for VBM:                   -0.125, -0.2222, 0.2857
# Kpoint for CBM:                   0.375, 0, 0.4286
# Dielectric constant, electronic:  3.6879
# Dielectric constant, ionic:       5.7298
# Dielectric constant, total:       9.4178
# Refractive index:                 1.9204
# Atomization energy (eV/atom):     -4.4425
# Relative energy1 (eV/atom):       0.0689
# Relative energy2 (eV/atom):       0.2912
# Volume of the unit cell (A^3):    238.7
# Density (g/cm^3):                 3.5049
# Tool:                             VASP
# Pseudopotential:                  PAW
# Note:                             ENCUT=400eV, k-spacing_relax=0.20/Angstrom, k-spacing_bandgap=0.15/Angstrom
# Created by:                       C.Kim, T.D.Huan, S.Krishnan, R. Ramprasad