data_1
_audit_creation_method   'Generated by vasp2cif'
_cell_length_a    6.08247756906
_cell_length_b    4.45157507373
_cell_length_c    9.32427859331
_cell_angle_alpha    108.112583025
_cell_angle_beta    90.3494553313
_cell_angle_gamma    95.8232771579

_symmetry_space_group_name_H-M    'P 1'
loop_
_atom_site_label
_atom_site_type_symbol
_atom_site_fract_x
_atom_site_fract_y
_atom_site_fract_z
_atom_site_occupancy
Br1   Br   0.872317479635667   0.728382511341159   0.803053215558005   1.0
Br2   Br   0.432906368769963   0.291337640688487   0.098127976635233   1.0
Br3   Br   0.925875175791489   0.058978172874914   0.294535990926884   1.0
H4   H   0.279092471019733   0.558942109990869   0.543689456539660   1.0
H5   H   0.475593197999832   0.708313555617406   0.347467125245761   1.0
H6   H   0.318611762884447   0.998934566968611   0.363111527003009   1.0
H7   H   0.693430315344023   0.009869546300700   0.573788271686675   1.0
H8   H   0.589682920613361   0.346008265253211   0.544884076417244   1.0
H9   H   0.260284596769924   0.274987768766237   0.703386506956374   1.0
H10   H   0.414771110353209   0.020957962507993   0.768140985740039   1.0
H11   H   0.074596187960890   0.789062720918367   0.508667137324287   1.0
C12   C   0.544513716481019   0.115684546869332   0.559805490353690   1.0
C13   C   0.247283411923875   0.791231615059268   0.539035963673231   1.0
C14   C   0.360294633153750   0.075808036449238   0.668627944939956   1.0
Pb15   Pb   0.918628784409757   0.387778054663346   0.044323058769975   1.0
N16   N   0.401777866889191   0.885932925730818   0.425085272229758   1.0




# HOIP entry ID:                    1219
# Khazana ID:                       3069
# Organic cation source:            B. Zhou et al., Angew. Chem. Int. Ed. 50, 11441 (2011)
# Label:                            Azetidinium Lead Bromide
# Material class:                   Hybrid organic-inorganic perovskite ( MC_ino )
# Geometry class:                   Bulk crystalline materials ( GC_cry )
# Organic cation chemical formula:  C3H6N2
# Number of atom types:             5
# Total number of atoms:            16
# Atom types:                       C H N  Pb Br
# Number of each atom:              3 8 1  1 3
# Bandgap, HSE06 (eV):              4.0311
# Bandgap, GGA (eV):                3.0366
# Kpoint for VBM:                   -0.3333, 0.1667, 0.1
# Kpoint for CBM:                   -0.4167, 0, 0.4
# Dielectric constant, electronic:  3.7631
# Dielectric constant, ionic:       6.6599
# Dielectric constant, total:       10.423
# Refractive index:                 1.9399
# Atomization energy (eV/atom):     -4.4434
# Relative energy1 (eV/atom):       0.0679
# Relative energy2 (eV/atom):       0.2903
# Volume of the unit cell (A^3):    238.53
# Density (g/cm^3):                 3.5074
# Tool:                             VASP
# Pseudopotential:                  PAW
# Note:                             ENCUT=400eV, k-spacing_relax=0.20/Angstrom, k-spacing_bandgap=0.15/Angstrom
# Created by:                       C.Kim, T.D.Huan, S.Krishnan, R. Ramprasad