data_1
_audit_creation_method   'Generated by vasp2cif'
_cell_length_a    8.6071279949
_cell_length_b    4.68763788723
_cell_length_c    6.21212291243
_cell_angle_alpha    78.6975924227
_cell_angle_beta    88.5496435356
_cell_angle_gamma    101.755348644

_symmetry_space_group_name_H-M    'P 1'
loop_
_atom_site_label
_atom_site_type_symbol
_atom_site_fract_x
_atom_site_fract_y
_atom_site_fract_z
_atom_site_occupancy
Br1   Br   0.788409148827682   0.760590775944138   0.176120441314524   1.0
Br2   Br   0.095136143200271   0.273923751011076   0.569498441761574   1.0
Br3   Br   0.284858615914246   0.975018690757068   0.073139226799185   1.0
H4   H   0.597250216203804   0.616925754083624   0.642107947415965   1.0
H5   H   0.352906928823309   0.726315276320669   0.486314528650645   1.0
H6   H   0.324447318604264   0.906289095071592   0.685665812690779   1.0
H7   H   0.574412722488979   0.113520489050629   0.319231157941374   1.0
H8   H   0.475150928333470   0.337259699648811   0.451750049282808   1.0
H9   H   0.628589791663202   0.205346698511967   0.796335217406558   1.0
H10   H   0.766371295685957   0.115158315119665   0.614607850432023   1.0
H11   H   0.505203385734170   0.661164129511228   0.893728837181733   1.0
C12   C   0.529421327785691   0.144588834523986   0.476132169615980   1.0
C13   C   0.545079864970617   0.762431969323437   0.723534679148891   1.0
C14   C   0.641353316933390   0.086680929413944   0.664745230796619   1.0
Pb15   Pb   0.030504773675027   0.364584445339140   0.102854991783282   1.0
N16   N   0.410164221155910   0.858901146369000   0.586653417778081   1.0




# HOIP entry ID:                    1220
# Khazana ID:                       3070
# Organic cation source:            B. Zhou et al., Angew. Chem. Int. Ed. 50, 11441 (2011)
# Label:                            Azetidinium Lead Bromide
# Material class:                   Hybrid organic-inorganic perovskite ( MC_ino )
# Geometry class:                   Bulk crystalline materials ( GC_cry )
# Organic cation chemical formula:  C3H6N2
# Number of atom types:             5
# Total number of atoms:            16
# Atom types:                       C H N  Pb Br
# Number of each atom:              3 8 1  1 3
# Bandgap, HSE06 (eV):              3.9173
# Bandgap, GGA (eV):                2.8776
# Kpoint for VBM:                   -0.125, 0.2222, 0.2857
# Kpoint for CBM:                   0.375, 0, 0.4286
# Dielectric constant, electronic:  3.7077
# Dielectric constant, ionic:       8.9167
# Dielectric constant, total:       12.6243
# Refractive index:                 1.9255
# Atomization energy (eV/atom):     -4.4418
# Relative energy1 (eV/atom):       0.0696
# Relative energy2 (eV/atom):       0.2919
# Volume of the unit cell (A^3):    240.07
# Density (g/cm^3):                 3.4849
# Tool:                             VASP
# Pseudopotential:                  PAW
# Note:                             ENCUT=400eV, k-spacing_relax=0.20/Angstrom, k-spacing_bandgap=0.15/Angstrom
# Created by:                       C.Kim, T.D.Huan, S.Krishnan, R. Ramprasad