data_1
_audit_creation_method   'Generated by vasp2cif'
_cell_length_a    4.37399806586
_cell_length_b    5.99803457746
_cell_length_c    8.88499636188
_cell_angle_alpha    92.2693037894
_cell_angle_beta    89.5848552792
_cell_angle_gamma    94.6004751202

_symmetry_space_group_name_H-M    'P 1'
loop_
_atom_site_label
_atom_site_type_symbol
_atom_site_fract_x
_atom_site_fract_y
_atom_site_fract_z
_atom_site_occupancy
Br1   Br   0.333669296848008   0.625813422139487   0.145217837086101   1.0
Br2   Br   0.993274338150812   0.097268953917563   0.890537384891864   1.0
Br3   Br   0.329253239403876   0.595827355905662   0.633634827188516   1.0
H4   H   0.863327028018489   0.004321496998507   0.185656177155046   1.0
H5   H   0.979476996676190   0.826828880057406   0.478830747323777   1.0
H6   H   0.652804267084335   0.791364721273581   0.381221333447094   1.0
H7   H   0.455799225843180   0.081645330943601   0.535637241498534   1.0
H8   H   0.830012992525610   0.151017827825321   0.607830369549568   1.0
H9   H   0.938536560467028   0.409066958599134   0.400146042600397   1.0
H10   H   0.593033101465345   0.311007012909073   0.306904977096551   1.0
H11   H   0.194712326736799   0.081557327097798   0.295900498373449   1.0
C12   C   0.696386283412153   0.113747064657559   0.505856251457502   1.0
C13   C   0.945836266549854   0.065978180906107   0.295552752000056   1.0
C14   C   0.785619362886649   0.261850027505773   0.371377978001050   1.0
Pb15   Pb   0.827870147254579   0.598780206745325   0.893495358327286   1.0
N16   N   0.821658566677087   0.908835232518015   0.420320224003255   1.0




# HOIP entry ID:                    1221
# Khazana ID:                       3071
# Organic cation source:            B. Zhou et al., Angew. Chem. Int. Ed. 50, 11441 (2011)
# Label:                            Azetidinium Lead Bromide
# Material class:                   Hybrid organic-inorganic perovskite ( MC_ino )
# Geometry class:                   Bulk crystalline materials ( GC_cry )
# Organic cation chemical formula:  C3H6N2
# Number of atom types:             5
# Total number of atoms:            16
# Atom types:                       C H N  Pb Br
# Number of each atom:              3 8 1  1 3
# Bandgap, HSE06 (eV):              3.8928
# Bandgap, GGA (eV):                2.7593
# Kpoint for VBM:                   0, 0.2368, 0
# Kpoint for CBM:                   0, -0.4286, 0.375
# Dielectric constant, electronic:  3.9579
# Dielectric constant, ionic:       9.5628
# Dielectric constant, total:       13.5206
# Refractive index:                 1.9894
# Atomization energy (eV/atom):     -4.4423
# Relative energy1 (eV/atom):       0.0691
# Relative energy2 (eV/atom):       0.2914
# Volume of the unit cell (A^3):    232.17
# Density (g/cm^3):                 3.6035
# Tool:                             VASP
# Pseudopotential:                  PAW
# Note:                             ENCUT=400eV, k-spacing_relax=0.20/Angstrom, k-spacing_bandgap=0.15/Angstrom
# Created by:                       C.Kim, T.D.Huan, S.Krishnan, R. Ramprasad