data_1
_audit_creation_method   'Generated by vasp2cif'
_cell_length_a    8.24887191931
_cell_length_b    6.31682711524
_cell_length_c    4.68114363215
_cell_angle_alpha    90.660695035
_cell_angle_beta    89.4420000404
_cell_angle_gamma    83.4224764407

_symmetry_space_group_name_H-M    'P 1'
loop_
_atom_site_label
_atom_site_type_symbol
_atom_site_fract_x
_atom_site_fract_y
_atom_site_fract_z
_atom_site_occupancy
Br1   Br   0.165026943049346   0.522131480937637   0.830302367085430   1.0
Br2   Br   0.867804116312765   0.064774094546525   0.841831103122072   1.0
Br3   Br   0.640056177177222   0.576589980663506   0.370655712732999   1.0
H4   H   0.436246203374944   0.847622654993779   0.899732391164414   1.0
H5   H   0.421811833023474   0.315995316568950   0.973933042273563   1.0
H6   H   0.592952276704552   0.139945865329368   0.974618487865095   1.0
H7   H   0.549757894502900   0.054459547856705   0.454287322975402   1.0
H8   H   0.402212325596024   0.288243365561602   0.466727117371691   1.0
H9   H   0.183230112379773   0.075892928509065   0.322286261556098   1.0
H10   H   0.318642942888142   0.837282018833343   0.389073671876513   1.0
H11   H   0.267257452585387   0.046548705107304   0.820702785166288   1.0
C12   C   0.440070345715845   0.136616762291193   0.360470859147366   1.0
C13   C   0.360993254589107   0.991523055135889   0.972193990623892   1.0
C14   C   0.305749254111711   0.992554258239178   0.287947649169367   1.0
Pb15   Pb   0.945162991628573   0.737282922542288   0.336105230908271   1.0
N16   N   0.471715876360265   0.167617042883740   0.040812006961640   1.0




# HOIP entry ID:                    1222
# Khazana ID:                       3072
# Organic cation source:            B. Zhou et al., Angew. Chem. Int. Ed. 50, 11441 (2011)
# Label:                            Azetidinium Lead Bromide
# Material class:                   Hybrid organic-inorganic perovskite ( MC_ino )
# Geometry class:                   Bulk crystalline materials ( GC_cry )
# Organic cation chemical formula:  C3H6N2
# Number of atom types:             5
# Total number of atoms:            16
# Atom types:                       C H N  Pb Br
# Number of each atom:              3 8 1  1 3
# Bandgap, HSE06 (eV):              3.7071
# Bandgap, GGA (eV):                2.7203
# Kpoint for VBM:                   0, -0.4167, 0.4375
# Kpoint for CBM:                   0, 0.5, 0
# Dielectric constant, electronic:  3.5412
# Dielectric constant, ionic:       4.6941
# Dielectric constant, total:       8.2353
# Refractive index:                 1.8818
# Atomization energy (eV/atom):     -4.4338
# Relative energy1 (eV/atom):       0.0776
# Relative energy2 (eV/atom):       0.2999
# Volume of the unit cell (A^3):    242.28
# Density (g/cm^3):                 3.4531
# Tool:                             VASP
# Pseudopotential:                  PAW
# Note:                             ENCUT=400eV, k-spacing_relax=0.20/Angstrom, k-spacing_bandgap=0.15/Angstrom
# Created by:                       C.Kim, T.D.Huan, S.Krishnan, R. Ramprasad