data_1
_audit_creation_method   'Generated by vasp2cif'
_cell_length_a    6.11904909649
_cell_length_b    6.55919339146
_cell_length_c    6.12895141777
_cell_angle_alpha    89.5731008879
_cell_angle_beta    80.401406755
_cell_angle_gamma    90.3318912706

_symmetry_space_group_name_H-M    'P 1'
loop_
_atom_site_label
_atom_site_type_symbol
_atom_site_fract_x
_atom_site_fract_y
_atom_site_fract_z
_atom_site_occupancy
Br1   Br   0.371535839438842   0.739832136858297   0.079740254700887   1.0
Br2   Br   0.854355441975123   0.740363693050128   0.581746505081362   1.0
Br3   Br   0.871057609121138   0.197450898738992   0.084361338401678   1.0
H4   H   0.559647375546810   0.040699156743749   0.784792012774865   1.0
H5   H   0.319134341496060   0.886560893859247   0.525497418110490   1.0
H6   H   0.260964209342745   0.528013663794944   0.492540684271965   1.0
H7   H   0.546947509375556   0.428496475473381   0.786773086371035   1.0
H8   H   0.140594086506233   0.187530012321488   0.353545572970297   1.0
C9   C   0.457493339475114   0.335200909455466   0.688659294733959   1.0
C10   C   0.341652799862636   0.045233390814047   0.556589699892740   1.0
C11   C   0.317474485552751   0.384111474699395   0.544798929278841   1.0
Pb12   Pb   0.878951001022884   0.734540983130003   0.091383526123970   1.0
N13   N   0.469352867342671   0.124746556458902   0.692476070216017   1.0
N14   N   0.247699093941463   0.201479754601913   0.464745607071912   1.0




# HOIP entry ID:                    1224
# Khazana ID:                       3074
# Organic cation source:            B.Saparov et al., Chem. Rev. 116, 4558 (2016)
# Label:                            Imidazolium Lead Bromide
# Material class:                   Hybrid organic-inorganic perovskite ( MC_ino )
# Geometry class:                   Bulk crystalline materials ( GC_cry )
# Organic cation chemical formula:  C3H5N2
# Number of atom types:             5
# Total number of atoms:            14
# Atom types:                       C H N  Pb Br
# Number of each atom:              3 5 2  1 3
# Bandgap, HSE06 (eV):              2.8641
# Bandgap, GGA (eV):                2.0319
# Kpoint for VBM:                   0.5, 0.5, 0.5
# Kpoint for CBM:                   0.5, 0.5, 0.5
# Dielectric constant, electronic:  4.1914
# Dielectric constant, ionic:       13.8444
# Dielectric constant, total:       18.0358
# Refractive index:                 2.0473
# Atomization energy (eV/atom):     -4.901
# Relative energy1 (eV/atom):       0.2734
# Relative energy2 (eV/atom):       0.5274
# Volume of the unit cell (A^3):    242.53
# Density (g/cm^3):                 3.5248
# Tool:                             VASP
# Pseudopotential:                  PAW
# Note:                             ENCUT=400eV, k-spacing_relax=0.20/Angstrom, k-spacing_bandgap=0.15/Angstrom
# Created by:                       C.Kim, T.D.Huan, S.Krishnan, R. Ramprasad