data_1
_audit_creation_method   'Generated by vasp2cif'
_cell_length_a    6.17352070391
_cell_length_b    6.32407592957
_cell_length_c    6.21021296289
_cell_angle_alpha    96.0991610141
_cell_angle_beta    81.7603364342
_cell_angle_gamma    84.1598282993

_symmetry_space_group_name_H-M    'P 1'
loop_
_atom_site_label
_atom_site_type_symbol
_atom_site_fract_x
_atom_site_fract_y
_atom_site_fract_z
_atom_site_occupancy
Br1   Br   0.667295504643848   0.749670109202527   0.924056565319814   1.0
Br2   Br   0.134253333506379   0.788946755174136   0.374716207345578   1.0
Br3   Br   0.138293887912220   0.246489846038959   0.894481360934519   1.0
H4   H   0.408577636794729   0.038830331852712   0.333615629244806   1.0
H5   H   0.652609108354111   0.001762612450146   0.629656741992081   1.0
H6   H   0.776188463239061   0.569625494333545   0.350055825035785   1.0
H7   H   0.465454612139611   0.372023730062893   0.141015629143748   1.0
H8   H   0.869292273028276   0.321337739740812   0.635784393940895   1.0
C9   C   0.550468013337288   0.329098652106996   0.272049648834070   1.0
C10   C   0.644103993193128   0.127171856134829   0.525529606091857   1.0
C11   C   0.702313629021929   0.425736222300095   0.374788921597174   1.0
Pb12   Pb   0.157191885685138   0.761343677959704   0.878865938082147   1.0
N13   N   0.517033512349756   0.144687265276231   0.368991383676367   1.0
N14   N   0.758104146794555   0.296745707366444   0.531132148761353   1.0




# HOIP entry ID:                    1225
# Khazana ID:                       3075
# Organic cation source:            B.Saparov et al., Chem. Rev. 116, 4558 (2016)
# Label:                            Imidazolium Lead Bromide
# Material class:                   Hybrid organic-inorganic perovskite ( MC_ino )
# Geometry class:                   Bulk crystalline materials ( GC_cry )
# Organic cation chemical formula:  C3H5N2
# Number of atom types:             5
# Total number of atoms:            14
# Atom types:                       C H N  Pb Br
# Number of each atom:              3 5 2  1 3
# Bandgap, HSE06 (eV):              2.9692
# Bandgap, GGA (eV):                2.0541
# Kpoint for VBM:                   0.5, 0.5, 0.5
# Kpoint for CBM:                   0.4737, 0.5, 0.4737
# Dielectric constant, electronic:  4.3262
# Dielectric constant, ionic:       28.9021
# Dielectric constant, total:       33.2283
# Refractive index:                 2.0799
# Atomization energy (eV/atom):     -4.9054
# Relative energy1 (eV/atom):       0.269
# Relative energy2 (eV/atom):       0.523
# Volume of the unit cell (A^3):    236.91
# Density (g/cm^3):                 3.6084
# Tool:                             VASP
# Pseudopotential:                  PAW
# Note:                             ENCUT=400eV, k-spacing_relax=0.20/Angstrom, k-spacing_bandgap=0.15/Angstrom
# Created by:                       C.Kim, T.D.Huan, S.Krishnan, R. Ramprasad