data_1
_audit_creation_method   'Generated by vasp2cif'
_cell_length_a    6.20046924477
_cell_length_b    6.19936783197
_cell_length_c    6.30691158634
_cell_angle_alpha    96.4378345172
_cell_angle_beta    96.4449565774
_cell_angle_gamma    97.0885602814

_symmetry_space_group_name_H-M    'P 1'
loop_
_atom_site_label
_atom_site_type_symbol
_atom_site_fract_x
_atom_site_fract_y
_atom_site_fract_z
_atom_site_occupancy
Br1   Br   0.943290994284311   0.864873023776369   0.453212432990327   1.0
Br2   Br   0.462155756813615   0.837545354755669   0.952308632534873   1.0
Br3   Br   0.935209135573082   0.382353874987906   0.910311529128563   1.0
H4   H   0.192268514456664   0.443954932065537   0.644223029234666   1.0
H5   H   0.421459697909690   0.138172676939547   0.708858576132300   1.0
H6   H   0.603534267110270   0.401129067527485   0.151711342866982   1.0
H7   H   0.285373284797707   0.628872037521873   0.315015743062247   1.0
H8   H   0.665644681902918   0.116573321591957   0.411344119280883   1.0
C9   C   0.360422428636227   0.494043303970166   0.367741511245633   1.0
C10   C   0.426162598187552   0.239225921971865   0.580804439415203   1.0
C11   C   0.516586861545278   0.382576048211064   0.288127557916404   1.0
Pb12   Pb   0.946164898991405   0.877234782310047   0.956189954360752   1.0
N13   N   0.306618190003597   0.401290412840758   0.548483339637940   1.0
N14   N   0.554528689787666   0.225215241529718   0.423517792193081   1.0




# HOIP entry ID:                    1226
# Khazana ID:                       3076
# Organic cation source:            B.Saparov et al., Chem. Rev. 116, 4558 (2016)
# Label:                            Imidazolium Lead Bromide
# Material class:                   Hybrid organic-inorganic perovskite ( MC_ino )
# Geometry class:                   Bulk crystalline materials ( GC_cry )
# Organic cation chemical formula:  C3H5N2
# Number of atom types:             5
# Total number of atoms:            14
# Atom types:                       C H N  Pb Br
# Number of each atom:              3 5 2  1 3
# Bandgap, HSE06 (eV):              2.9359
# Bandgap, GGA (eV):                2.0313
# Kpoint for VBM:                   0.5, 0.5, 0.5
# Kpoint for CBM:                   0.5, 0.5, 0.5
# Dielectric constant, electronic:  4.331
# Dielectric constant, ionic:       62.7813
# Dielectric constant, total:       67.1123
# Refractive index:                 2.0811
# Atomization energy (eV/atom):     -4.9059
# Relative energy1 (eV/atom):       0.2685
# Relative energy2 (eV/atom):       0.5225
# Volume of the unit cell (A^3):    237.1
# Density (g/cm^3):                 3.6055
# Tool:                             VASP
# Pseudopotential:                  PAW
# Note:                             ENCUT=400eV, k-spacing_relax=0.20/Angstrom, k-spacing_bandgap=0.15/Angstrom
# Created by:                       C.Kim, T.D.Huan, S.Krishnan, R. Ramprasad