data_1
_audit_creation_method   'Generated by vasp2cif'
_cell_length_a    9.11266689811
_cell_length_b    4.26895134579
_cell_length_c    6.08522029527
_cell_angle_alpha    100.22807664
_cell_angle_beta    93.9578583756
_cell_angle_gamma    90.304803779

_symmetry_space_group_name_H-M    'P 1'
loop_
_atom_site_label
_atom_site_type_symbol
_atom_site_fract_x
_atom_site_fract_y
_atom_site_fract_z
_atom_site_occupancy
Br1   Br   0.746316815048826   0.125637861586640   0.001020653400558   1.0
Br2   Br   0.006983600877564   0.818279286849405   0.487351160247493   1.0
Br3   Br   0.248274566425739   0.142528332200262   0.038511554845196   1.0
H4   H   0.289713367091191   0.835951494146154   0.396330354686594   1.0
H5   H   0.563369262237770   0.342912598966513   0.769907207286829   1.0
H6   H   0.727369917466768   0.530733241755580   0.494719004767228   1.0
H7   H   0.543939144695935   0.871037433723905   0.242349852932905   1.0
H8   H   0.294922882246674   0.513530021977093   0.711785247425628   1.0
C9   C   0.611860045039177   0.580026143746684   0.500500624804532   1.0
C10   C   0.521829543987548   0.747974407813157   0.376667451861475   1.0
C11   C   0.386247486743060   0.568894787358425   0.622153669535734   1.0
Pb12   Pb   0.992884233691562   0.624805277802427   0.993580728547679   1.0
N13   N   0.524899441251633   0.470956410981733   0.651195567431366   1.0
N14   N   0.383019693196684   0.739602701092125   0.457156922226801   1.0




# HOIP entry ID:                    1227
# Khazana ID:                       3077
# Organic cation source:            B.Saparov et al., Chem. Rev. 116, 4558 (2016)
# Label:                            Imidazolium Lead Bromide
# Material class:                   Hybrid organic-inorganic perovskite ( MC_ino )
# Geometry class:                   Bulk crystalline materials ( GC_cry )
# Organic cation chemical formula:  C3H5N2
# Number of atom types:             5
# Total number of atoms:            14
# Atom types:                       C H N  Pb Br
# Number of each atom:              3 5 2  1 3
# Bandgap, HSE06 (eV):              3.9686
# Bandgap, GGA (eV):                2.9868
# Kpoint for VBM:                   0.375, 0, 0.1429
# Kpoint for CBM:                   0, 0.0556, 0.5
# Dielectric constant, electronic:  3.9193
# Dielectric constant, ionic:       8.2707
# Dielectric constant, total:       12.1901
# Refractive index:                 1.9797
# Atomization energy (eV/atom):     -4.9071
# Relative energy1 (eV/atom):       0.2672
# Relative energy2 (eV/atom):       0.5213
# Volume of the unit cell (A^3):    232.37
# Density (g/cm^3):                 3.6789
# Tool:                             VASP
# Pseudopotential:                  PAW
# Note:                             ENCUT=400eV, k-spacing_relax=0.20/Angstrom, k-spacing_bandgap=0.15/Angstrom
# Created by:                       C.Kim, T.D.Huan, S.Krishnan, R. Ramprasad