data_1
_audit_creation_method   'Generated by vasp2cif'
_cell_length_a    6.15501626065
_cell_length_b    4.30579553955
_cell_length_c    9.01052955481
_cell_angle_alpha    93.6712510375
_cell_angle_beta    92.3948192328
_cell_angle_gamma    98.6637704376

_symmetry_space_group_name_H-M    'P 1'
loop_
_atom_site_label
_atom_site_type_symbol
_atom_site_fract_x
_atom_site_fract_y
_atom_site_fract_z
_atom_site_occupancy
Br1   Br   0.019038427687585   0.422766714667203   0.265007545393809   1.0
Br2   Br   0.536142348847398   0.749533119474867   0.992530158185067   1.0
Br3   Br   0.015134872453250   0.349830977131834   0.764824172812438   1.0
H4   H   0.421798089008540   0.950199527718335   0.733887911807205   1.0
H5   H   0.756979560160147   0.736347519321953   0.369099611878639   1.0
H6   H   0.483198499761482   0.080151358945737   0.273366209720414   1.0
H7   H   0.246075640352354   0.217370475137328   0.520373450912135   1.0
H8   H   0.725428644047128   0.655838345891143   0.645862586765538   1.0
C9   C   0.494831123198738   0.017158192320944   0.386707607762563   1.0
C10   C   0.379599922641252   0.084864999871328   0.507840780757827   1.0
C11   C   0.628226047370797   0.788626966059621   0.579173506126830   1.0
Pb12   Pb   0.023521742425799   0.884625624811183   0.014075359836140   1.0
N13   N   0.647629446919423   0.832564653250848   0.433887325424780   1.0
N14   N   0.465645635126103   0.940131525397687   0.625863772616605   1.0




# HOIP entry ID:                    1228
# Khazana ID:                       3078
# Organic cation source:            B.Saparov et al., Chem. Rev. 116, 4558 (2016)
# Label:                            Imidazolium Lead Bromide
# Material class:                   Hybrid organic-inorganic perovskite ( MC_ino )
# Geometry class:                   Bulk crystalline materials ( GC_cry )
# Organic cation chemical formula:  C3H5N2
# Number of atom types:             5
# Total number of atoms:            14
# Atom types:                       C H N  Pb Br
# Number of each atom:              3 5 2  1 3
# Bandgap, HSE06 (eV):              3.9201
# Bandgap, GGA (eV):                3.0095
# Kpoint for VBM:                   -0.2143, 0.0556, 0.5
# Kpoint for CBM:                   0.5, 0.0556, 0
# Dielectric constant, electronic:  3.8804
# Dielectric constant, ionic:       6.8173
# Dielectric constant, total:       10.6976
# Refractive index:                 1.9699
# Atomization energy (eV/atom):     -4.9094
# Relative energy1 (eV/atom):       0.2649
# Relative energy2 (eV/atom):       0.519
# Volume of the unit cell (A^3):    235.27
# Density (g/cm^3):                 3.6335
# Tool:                             VASP
# Pseudopotential:                  PAW
# Note:                             ENCUT=400eV, k-spacing_relax=0.20/Angstrom, k-spacing_bandgap=0.15/Angstrom
# Created by:                       C.Kim, T.D.Huan, S.Krishnan, R. Ramprasad