data_1
_audit_creation_method   'Generated by vasp2cif'
_cell_length_a    6.5119542446
_cell_length_b    6.45795084751
_cell_length_c    6.71983562584
_cell_angle_alpha    83.7300407047
_cell_angle_beta    88.7114113531
_cell_angle_gamma    93.4068129472

_symmetry_space_group_name_H-M    'P 1'
loop_
_atom_site_label
_atom_site_type_symbol
_atom_site_fract_x
_atom_site_fract_y
_atom_site_fract_z
_atom_site_occupancy
C1   C   0.471621716524709   0.577816065678263   0.339352308886987   1.0
C2   C   0.543921252270842   0.415235240903861   0.210054948515335   1.0
H3   H   0.708523361267069   0.440414504344659   0.171415459061244   1.0
H4   H   0.458858862688146   0.426520098044847   0.071414691228227   1.0
H5   H   0.574412396240874   0.420740317332580   0.611601065167847   1.0
H6   H   0.543175386413886   0.675624228385054   0.624783802931987   1.0
H7   H   0.514210111131149   0.256930720419810   0.285765673567724   1.0
H8   H   0.498638426824755   0.737179861539495   0.266443651589505   1.0
H9   H   0.309295005242760   0.551474281505108   0.384781522586991   1.0
H10   H   0.746841543582235   0.603435656215815   0.502823258453176   1.0
I11   I   0.530444583988569   0.021390815112746   0.809047315769625   1.0
I12   I   0.065895525781016   0.507468463331286   0.819324322540311   1.0
I13   I   0.009623371830180   0.993661519400526   0.352281937194213   1.0
N14   N   0.591524325768354   0.568114578878493   0.532529318723618   1.0
Pb15   Pb   0.027724130445520   0.012583648907373   0.889400723783247   1.0




# HOIP entry ID:                    1229
# Khazana ID:                       3079
# Organic cation source:            B.Saparov et al., Chem. Rev. 116, 4558 (2016)
# Label:                            Ethylammonium Lead Iodide
# Material class:                   Hybrid organic-inorganic perovskite ( MC_ino )
# Geometry class:                   Bulk crystalline materials ( GC_cry )
# Organic cation chemical formula:  CH3CH2NH3
# Number of atom types:             5
# Total number of atoms:            15
# Atom types:                       C H N  Pb I
# Number of each atom:              2 8 1  1 3
# Bandgap, HSE06 (eV):              2.6461
# Bandgap, GGA (eV):                1.8794
# Kpoint for VBM:                   0.5, 0.5, 0.2368
# Kpoint for CBM:                   0.5, 0.5, 0.5
# Dielectric constant, electronic:  4.8953
# Dielectric constant, ionic:       8.9692
# Dielectric constant, total:       13.8645
# Refractive index:                 2.2125
# Atomization energy (eV/atom):     -4.1706
# Relative energy1 (eV/atom):       0.2277
# Relative energy2 (eV/atom):       0.3776
# Volume of the unit cell (A^3):    280.29
# Density (g/cm^3):                 3.7562
# Tool:                             VASP
# Pseudopotential:                  PAW
# Note:                             ENCUT=400eV, k-spacing_relax=0.20/Angstrom, k-spacing_bandgap=0.15/Angstrom
# Created by:                       C.Kim, T.D.Huan, S.Krishnan, R. Ramprasad