data_1
_audit_creation_method   'Generated by vasp2cif'
_cell_length_a    6.58964494559
_cell_length_b    6.38965885196
_cell_length_c    6.7092323143
_cell_angle_alpha    86.5151140399
_cell_angle_beta    83.3408403879
_cell_angle_gamma    88.3166692624

_symmetry_space_group_name_H-M    'P 1'
loop_
_atom_site_label
_atom_site_type_symbol
_atom_site_fract_x
_atom_site_fract_y
_atom_site_fract_z
_atom_site_occupancy
C1   C   0.569800867210371   0.771261639906734   0.303557909405653   1.0
C2   C   0.555544686526957   0.597057605955877   0.161215776016227   1.0
H3   H   0.707118173690170   0.546887089041108   0.094046938570203   1.0
H4   H   0.467141548917639   0.655054248172966   0.040296346372009   1.0
H5   H   0.619526966172349   0.562739631930848   0.556174886010000   1.0
H6   H   0.691368732533973   0.808935685382061   0.578919430954049   1.0
H7   H   0.477232316139286   0.460836591809286   0.238335959580536   1.0
H8   H   0.652772189829675   0.906392379715576   0.231647858754507   1.0
H9   H   0.420045256422543   0.824486519016463   0.371323163185644   1.0
H10   H   0.835659598672305   0.649243594774628   0.430140223807944   1.0
I11   I   0.595936571206013   0.159090752287471   0.781026736262228   1.0
I12   I   0.123764511018187   0.665328073299204   0.757815868101344   1.0
I13   I   0.056744885195986   0.182241101519909   0.306420067696985   1.0
N14   N   0.686904075920434   0.692526260498454   0.478313468466633   1.0
Pb15   Pb   0.103909620544169   0.167718826689512   0.842485366816146   1.0




# HOIP entry ID:                    1230
# Khazana ID:                       3080
# Organic cation source:            B.Saparov et al., Chem. Rev. 116, 4558 (2016)
# Label:                            Ethylammonium Lead Iodide
# Material class:                   Hybrid organic-inorganic perovskite ( MC_ino )
# Geometry class:                   Bulk crystalline materials ( GC_cry )
# Organic cation chemical formula:  CH3CH2NH3
# Number of atom types:             5
# Total number of atoms:            15
# Atom types:                       C H N  Pb I
# Number of each atom:              2 8 1  1 3
# Bandgap, HSE06 (eV):              2.6208
# Bandgap, GGA (eV):                1.7746
# Kpoint for VBM:                   0.5, 0.5, 0
# Kpoint for CBM:                   0.5, 0.5, 0.4474
# Dielectric constant, electronic:  4.9083
# Dielectric constant, ionic:       9.3536
# Dielectric constant, total:       14.2618
# Refractive index:                 2.2155
# Atomization energy (eV/atom):     -4.1688
# Relative energy1 (eV/atom):       0.2295
# Relative energy2 (eV/atom):       0.3794
# Volume of the unit cell (A^3):    280
# Density (g/cm^3):                 3.7601
# Tool:                             VASP
# Pseudopotential:                  PAW
# Note:                             ENCUT=400eV, k-spacing_relax=0.20/Angstrom, k-spacing_bandgap=0.15/Angstrom
# Created by:                       C.Kim, T.D.Huan, S.Krishnan, R. Ramprasad