data_1
_audit_creation_method   'Generated by vasp2cif'
_cell_length_a    6.5039426848
_cell_length_b    4.50977432009
_cell_length_c    9.39720931632
_cell_angle_alpha    98.3867170758
_cell_angle_beta    90.1355919274
_cell_angle_gamma    92.4895471001

_symmetry_space_group_name_H-M    'P 1'
loop_
_atom_site_label
_atom_site_type_symbol
_atom_site_fract_x
_atom_site_fract_y
_atom_site_fract_z
_atom_site_occupancy
C1   C   0.566401112295722   0.731939602149261   0.420547156662899   1.0
C2   C   0.571004698463021   0.558807859557348   0.547912526777147   1.0
H3   H   0.713971642474661   0.439752962665658   0.550686280342546   1.0
H4   H   0.563051763006420   0.715593067493792   0.647559089604805   1.0
H5   H   0.710942314652023   0.399349845942858   0.275002532689449   1.0
H6   H   0.575590422065588   0.629385742034820   0.190734849781130   1.0
H7   H   0.423658135345612   0.850061457958908   0.416076117312322   1.0
H8   H   0.439215302520736   0.398270251890175   0.545053477814285   1.0
H9   H   0.698601800465497   0.890579989459063   0.421580564171656   1.0
H10   H   0.450031986151373   0.368241086526645   0.268995828198051   1.0
I11   I   0.559853199277455   0.844339966039961   0.961916282463136   1.0
I12   I   0.068360589080562   0.200411348360774   0.224695753185891   1.0
I13   I   0.069139716652238   0.063081888729684   0.682932647478410   1.0
N14   N   0.576942716614766   0.517595043302094   0.280461755537637   1.0
Pb15   Pb   0.066774600934337   0.647299887888977   0.934015137980730   1.0




# HOIP entry ID:                    1231
# Khazana ID:                       3081
# Organic cation source:            B.Saparov et al., Chem. Rev. 116, 4558 (2016)
# Label:                            Ethylammonium Lead Iodide
# Material class:                   Hybrid organic-inorganic perovskite ( MC_ino )
# Geometry class:                   Bulk crystalline materials ( GC_cry )
# Organic cation chemical formula:  CH3CH2NH3
# Number of atom types:             5
# Total number of atoms:            15
# Atom types:                       C H N  Pb I
# Number of each atom:              2 8 1  1 3
# Bandgap, HSE06 (eV):              2.9708
# Bandgap, GGA (eV):                2.1717
# Kpoint for VBM:                   0, 0.0556, 0.5
# Kpoint for CBM:                   0.5, 0.0556, 0
# Dielectric constant, electronic:  4.4767
# Dielectric constant, ionic:       8.7629
# Dielectric constant, total:       13.2396
# Refractive index:                 2.1158
# Atomization energy (eV/atom):     -4.1682
# Relative energy1 (eV/atom):       0.2302
# Relative energy2 (eV/atom):       0.3801
# Volume of the unit cell (A^3):    272.42
# Density (g/cm^3):                 3.8647
# Tool:                             VASP
# Pseudopotential:                  PAW
# Note:                             ENCUT=400eV, k-spacing_relax=0.20/Angstrom, k-spacing_bandgap=0.15/Angstrom
# Created by:                       C.Kim, T.D.Huan, S.Krishnan, R. Ramprasad