data_1
_audit_creation_method   'Generated by vasp2cif'
_cell_length_a    8.97005336856
_cell_length_b    4.65141764453
_cell_length_c    6.59397347222
_cell_angle_alpha    83.1013709318
_cell_angle_beta    91.9140306595
_cell_angle_gamma    88.0504155218

_symmetry_space_group_name_H-M    'P 1'
loop_
_atom_site_label
_atom_site_type_symbol
_atom_site_fract_x
_atom_site_fract_y
_atom_site_fract_z
_atom_site_occupancy
C1   C   0.466951089768472   0.542193215487323   0.423485259330533   1.0
C2   C   0.416761347532678   0.710907694867650   0.595197620054606   1.0
H3   H   0.393830803047258   0.565363563814429   0.732704186495766   1.0
H4   H   0.502117251174312   0.858149233011261   0.637424384095958   1.0
H5   H   0.619584715476776   0.264387570331394   0.620876466543933   1.0
H6   H   0.703148698001165   0.534672190256011   0.489723546626649   1.0
H7   H   0.389181731551851   0.375001164110842   0.393840235612117   1.0
H8   H   0.314147958090899   0.837197038142982   0.546116311017691   1.0
H9   H   0.481073372463541   0.681489163737126   0.280362003960029   1.0
H10   H   0.648898970544458   0.259694899116241   0.368508002503774   1.0
I11   I   0.958359135491705   0.763931950247425   0.531997063006848   1.0
I12   I   0.699196062691918   0.120417891485900   0.008219627036866   1.0
I13   I   0.234651635996634   0.095994325874166   0.022614060129442   1.0
N14   N   0.618173664454282   0.388797557834998   0.479345467878375   1.0
Pb15   Pb   0.981833563714090   0.610572541682252   0.018435765707380   1.0




# HOIP entry ID:                    1232
# Khazana ID:                       3082
# Organic cation source:            B.Saparov et al., Chem. Rev. 116, 4558 (2016)
# Label:                            Ethylammonium Lead Iodide
# Material class:                   Hybrid organic-inorganic perovskite ( MC_ino )
# Geometry class:                   Bulk crystalline materials ( GC_cry )
# Organic cation chemical formula:  CH3CH2NH3
# Number of atom types:             5
# Total number of atoms:            15
# Atom types:                       C H N  Pb I
# Number of each atom:              2 8 1  1 3
# Bandgap, HSE06 (eV):              3.1007
# Bandgap, GGA (eV):                2.279
# Kpoint for VBM:                   0.5, 0.0556, 0
# Kpoint for CBM:                   0, 0.0556, 0.5
# Dielectric constant, electronic:  4.4532
# Dielectric constant, ionic:       6.8905
# Dielectric constant, total:       11.3437
# Refractive index:                 2.1103
# Atomization energy (eV/atom):     -4.1691
# Relative energy1 (eV/atom):       0.2292
# Relative energy2 (eV/atom):       0.3791
# Volume of the unit cell (A^3):    272.78
# Density (g/cm^3):                 3.8596
# Tool:                             VASP
# Pseudopotential:                  PAW
# Note:                             ENCUT=400eV, k-spacing_relax=0.20/Angstrom, k-spacing_bandgap=0.15/Angstrom
# Created by:                       C.Kim, T.D.Huan, S.Krishnan, R. Ramprasad