data_1
_audit_creation_method   'Generated by vasp2cif'
_cell_length_a    6.4876735764
_cell_length_b    4.71301106083
_cell_length_c    8.95479954272
_cell_angle_alpha    89.0358288683
_cell_angle_beta    87.6251647303
_cell_angle_gamma    80.5168556709

_symmetry_space_group_name_H-M    'P 1'
loop_
_atom_site_label
_atom_site_type_symbol
_atom_site_fract_x
_atom_site_fract_y
_atom_site_fract_z
_atom_site_occupancy
C1   C   0.443321206066138   0.535339939580332   0.503329756116919   1.0
C2   C   0.607018171313939   0.726933316102219   0.524007893621274   1.0
H3   H   0.765635945024691   0.608432720484799   0.506866601348854   1.0
H4   H   0.587192555428594   0.906765927580096   0.444421560720336   1.0
H5   H   0.602015809045298   0.306972163944487   0.316615012266340   1.0
H6   H   0.439324672989187   0.596741073018379   0.265658615025288   1.0
H7   H   0.466437455992725   0.345541403666154   0.576095515222107   1.0
H8   H   0.591007949263897   0.812047729086736   0.637393703269559   1.0
H9   H   0.284202924162557   0.649948296518353   0.522599944416996   1.0
H10   H   0.340440625686220   0.306809559136816   0.323325664272687   1.0
I11   I   0.533113286775659   0.789591088985297   0.990247325813606   1.0
I12   I   0.004791308989908   0.107591084312453   0.251835051553378   1.0
I13   I   0.017467130415739   0.128732449933928   0.715709613307226   1.0
N14   N   0.456568776843156   0.428184168956761   0.342791295898444   1.0
Pb15   Pb   0.024402182002163   0.610889078693340   0.966742447147055   1.0




# HOIP entry ID:                    1236
# Khazana ID:                       3086
# Organic cation source:            B.Saparov et al., Chem. Rev. 116, 4558 (2016)
# Label:                            Ethylammonium Lead Iodide
# Material class:                   Hybrid organic-inorganic perovskite ( MC_ino )
# Geometry class:                   Bulk crystalline materials ( GC_cry )
# Organic cation chemical formula:  CH3CH2NH3
# Number of atom types:             5
# Total number of atoms:            15
# Atom types:                       C H N  Pb I
# Number of each atom:              2 8 1  1 3
# Bandgap, HSE06 (eV):              3.1931
# Bandgap, GGA (eV):                2.3702
# Kpoint for VBM:                   0, 0.0556, 0.5
# Kpoint for CBM:                   0.5, 0.0556, 0
# Dielectric constant, electronic:  4.4957
# Dielectric constant, ionic:       7.0602
# Dielectric constant, total:       11.5559
# Refractive index:                 2.1203
# Atomization energy (eV/atom):     -4.1674
# Relative energy1 (eV/atom):       0.231
# Relative energy2 (eV/atom):       0.3809
# Volume of the unit cell (A^3):    269.82
# Density (g/cm^3):                 3.9019
# Tool:                             VASP
# Pseudopotential:                  PAW
# Note:                             ENCUT=400eV, k-spacing_relax=0.20/Angstrom, k-spacing_bandgap=0.15/Angstrom
# Created by:                       C.Kim, T.D.Huan, S.Krishnan, R. Ramprasad