data_1
_audit_creation_method   'Generated by vasp2cif'
_cell_length_a    9.2552398958
_cell_length_b    4.40239639421
_cell_length_c    6.51092182088
_cell_angle_alpha    90.7825527348
_cell_angle_beta    89.3627771099
_cell_angle_gamma    92.1947260034

_symmetry_space_group_name_H-M    'P 1'
loop_
_atom_site_label
_atom_site_type_symbol
_atom_site_fract_x
_atom_site_fract_y
_atom_site_fract_z
_atom_site_occupancy
C1   C   0.375899331455734   0.756427164468633   0.407184947561248   1.0
C2   C   0.499695869164903   0.538222411249841   0.411641855997843   1.0
H3   H   0.500468511111720   0.392340462433793   0.274096618524936   1.0
H4   H   0.601912821949256   0.670960663034890   0.416145386793168   1.0
H5   H   0.220799594540800   0.444493455684913   0.274623063986120   1.0
H6   H   0.144620257068262   0.729142775625206   0.403483487804777   1.0
H7   H   0.374308018555659   0.902701195938405   0.543873079744792   1.0
H8   H   0.494037784203911   0.397807636719683   0.549172695699390   1.0
H9   H   0.379627301607989   0.894183375187843   0.268780284139517   1.0
H10   H   0.216111210419633   0.450088304778191   0.535453065039242   1.0
I11   I   0.901544298011764   0.039911415224232   0.401774923821449   1.0
I12   I   0.182559405593906   0.185473299724869   0.899502003009133   1.0
I13   I   0.618848345265079   0.990965403580383   0.901456740346809   1.0
N14   N   0.230018091420504   0.582609350924876   0.405012444659079   1.0
Pb15   Pb   0.867729159630862   0.482013085424242   0.010349402872443   1.0




# HOIP entry ID:                    1237
# Khazana ID:                       3087
# Organic cation source:            B.Saparov et al., Chem. Rev. 116, 4558 (2016)
# Label:                            Ethylammonium Lead Iodide
# Material class:                   Hybrid organic-inorganic perovskite ( MC_ino )
# Geometry class:                   Bulk crystalline materials ( GC_cry )
# Organic cation chemical formula:  CH3CH2NH3
# Number of atom types:             5
# Total number of atoms:            15
# Atom types:                       C H N  Pb I
# Number of each atom:              2 8 1  1 3
# Bandgap, HSE06 (eV):              2.6467
# Bandgap, GGA (eV):                1.8327
# Kpoint for VBM:                   0.375, -0.1111, 0.0833
# Kpoint for CBM:                   0.25, 0.5, 0
# Dielectric constant, electronic:  4.4161
# Dielectric constant, ionic:       7.9324
# Dielectric constant, total:       12.3485
# Refractive index:                 2.1014
# Atomization energy (eV/atom):     -4.1537
# Relative energy1 (eV/atom):       0.2446
# Relative energy2 (eV/atom):       0.3945
# Volume of the unit cell (A^3):    265.05
# Density (g/cm^3):                 3.9721
# Tool:                             VASP
# Pseudopotential:                  PAW
# Note:                             ENCUT=400eV, k-spacing_relax=0.20/Angstrom, k-spacing_bandgap=0.15/Angstrom
# Created by:                       C.Kim, T.D.Huan, S.Krishnan, R. Ramprasad