data_1
_audit_creation_method   'Generated by vasp2cif'
_cell_length_a    11.7378488851
_cell_length_b    4.90080092097
_cell_length_c    4.86222305725
_cell_angle_alpha    89.9923181929
_cell_angle_beta    90.0491540159
_cell_angle_gamma    85.1645831343

_symmetry_space_group_name_H-M    'P 1'
loop_
_atom_site_label
_atom_site_type_symbol
_atom_site_fract_x
_atom_site_fract_y
_atom_site_fract_z
_atom_site_occupancy
C1   C   0.596584542335172   0.706928093936483   0.547627691814569   1.0
C2   C   0.522912347726596   0.466782503928570   0.524154823058325   1.0
H3   H   0.536571281684040   0.327129260119236   0.698941521948406   1.0
H4   H   0.432849376686448   0.543941585587888   0.522697454954006   1.0
H5   H   0.742176647438249   0.474690788983658   0.714706515062261   1.0
H6   H   0.773263193657542   0.769206169889941   0.570752214375617   1.0
H7   H   0.584426379774335   0.847471145969976   0.374020242046477   1.0
H8   H   0.540484094085194   0.352867896365566   0.333155170694809   1.0
H9   H   0.580297621537888   0.822025672978839   0.737667421069105   1.0
H10   H   0.746876406440016   0.500429637785992   0.373519665634895   1.0
I11   I   0.067311289621472   0.551579763097109   0.541711870857355   1.0
I12   I   0.800531452813871   0.089664101979942   0.049693315040315   1.0
I13   I   0.353089650453775   0.998973559176434   0.036307081605550   1.0
N14   N   0.723014582082634   0.607682372333336   0.551168663416739   1.0
Pb15   Pb   0.099281133662828   0.049277447866992   0.039176348421705   1.0




# HOIP entry ID:                    1238
# Khazana ID:                       3088
# Organic cation source:            B.Saparov et al., Chem. Rev. 116, 4558 (2016)
# Label:                            Ethylammonium Lead Iodide
# Material class:                   Hybrid organic-inorganic perovskite ( MC_ino )
# Geometry class:                   Bulk crystalline materials ( GC_cry )
# Organic cation chemical formula:  CH3CH2NH3
# Number of atom types:             5
# Total number of atoms:            15
# Atom types:                       C H N  Pb I
# Number of each atom:              2 8 1  1 3
# Bandgap, HSE06 (eV):              2.2316
# Bandgap, GGA (eV):                1.3945
# Kpoint for VBM:                   -0.1667, 0.125, 0
# Kpoint for CBM:                   0.5, 0, 0.5
# Dielectric constant, electronic:  4.4669
# Dielectric constant, ionic:       20.1954
# Dielectric constant, total:       24.6622
# Refractive index:                 2.1135
# Atomization energy (eV/atom):     -4.1561
# Relative energy1 (eV/atom):       0.2422
# Relative energy2 (eV/atom):       0.3921
# Volume of the unit cell (A^3):    278.7
# Density (g/cm^3):                 3.7776
# Tool:                             VASP
# Pseudopotential:                  PAW
# Note:                             ENCUT=400eV, k-spacing_relax=0.20/Angstrom, k-spacing_bandgap=0.15/Angstrom
# Created by:                       C.Kim, T.D.Huan, S.Krishnan, R. Ramprasad