data_1
_audit_creation_method   'Generated by vasp2cif'
_cell_length_a    9.6700276915
_cell_length_b    4.73933456541
_cell_length_c    6.36770671447
_cell_angle_alpha    87.0871362536
_cell_angle_beta    98.5507357457
_cell_angle_gamma    108.046518117

_symmetry_space_group_name_H-M    'P 1'
loop_
_atom_site_label
_atom_site_type_symbol
_atom_site_fract_x
_atom_site_fract_y
_atom_site_fract_z
_atom_site_occupancy
C1   C   0.616337987936511   0.672065793218025   0.517358617007517   1.0
C2   C   0.484403596373696   0.587440176250610   0.638489302861259   1.0
H3   H   0.391098619727728   0.419269729528345   0.552323897164818   1.0
H4   H   0.512215825679888   0.503305306443153   0.797229511461374   1.0
H5   H   0.696682338795739   0.320100011626060   0.639867198119006   1.0
H6   H   0.757720977331772   0.461125737796678   0.411908491856884   1.0
H7   H   0.590879536258583   0.751396131743846   0.356593864216670   1.0
H8   H   0.450209361003708   0.783461799076910   0.657104858390881   1.0
H9   H   0.711266362561901   0.835451697205514   0.602816127200150   1.0
H10   H   0.583155568179002   0.243627676160280   0.402837486266193   1.0
I11   I   0.049097820346702   0.861088759419822   0.538477612069798   1.0
I12   I   0.804184492366510   0.196786462803423   0.024992483360755   1.0
I13   I   0.355078373215129   0.009807648942434   0.117355243892277   1.0
N14   N   0.666873941657364   0.404111129474984   0.491368916281850   1.0
Pb15   Pb   0.121485198565793   0.384091940310000   0.895596389850574   1.0




# HOIP entry ID:                    1239
# Khazana ID:                       3089
# Organic cation source:            B.Saparov et al., Chem. Rev. 116, 4558 (2016)
# Label:                            Ethylammonium Lead Iodide
# Material class:                   Hybrid organic-inorganic perovskite ( MC_ino )
# Geometry class:                   Bulk crystalline materials ( GC_cry )
# Organic cation chemical formula:  CH3CH2NH3
# Number of atom types:             5
# Total number of atoms:            15
# Atom types:                       C H N  Pb I
# Number of each atom:              2 8 1  1 3
# Bandgap, HSE06 (eV):              3.128
# Bandgap, GGA (eV):                2.3214
# Kpoint for VBM:                   0.5, 0.1667, 0
# Kpoint for CBM:                   0.125, 0, 0.4167
# Dielectric constant, electronic:  4.2063
# Dielectric constant, ionic:       4.4654
# Dielectric constant, total:       8.6717
# Refractive index:                 2.0509
# Atomization energy (eV/atom):     -4.1552
# Relative energy1 (eV/atom):       0.2431
# Relative energy2 (eV/atom):       0.393
# Volume of the unit cell (A^3):    274.38
# Density (g/cm^3):                 3.8371
# Tool:                             VASP
# Pseudopotential:                  PAW
# Note:                             ENCUT=400eV, k-spacing_relax=0.20/Angstrom, k-spacing_bandgap=0.15/Angstrom
# Created by:                       C.Kim, T.D.Huan, S.Krishnan, R. Ramprasad