data_1
_audit_creation_method   'Generated by vasp2cif'
_cell_length_a    6.36934266909
_cell_length_b    6.46443530083
_cell_length_c    7.69370898195
_cell_angle_alpha    99.6503702055
_cell_angle_beta    81.118397713
_cell_angle_gamma    88.9550837838

_symmetry_space_group_name_H-M    'P 1'
loop_
_atom_site_label
_atom_site_type_symbol
_atom_site_fract_x
_atom_site_fract_y
_atom_site_fract_z
_atom_site_occupancy
C1   C   0.404988432091905   0.675874818819409   0.605229797243005   1.0
C2   C   0.329904675598975   0.505671341484877   0.712774102892986   1.0
C3   C   0.439569095164515   0.523161264247449   0.878148683297489   1.0
H4   H   0.396001752521911   0.673106607412912   0.967641617604059   1.0
H5   H   0.394028053603215   0.396846873768809   0.952403151215876   1.0
H6   H   0.367706988319057   0.350583411014775   0.629040550943813   1.0
H7   H   0.156153609761049   0.520290767070470   0.751842328874922   1.0
H8   H   0.328932783695883   0.510341384604210   0.361943950717098   1.0
H9   H   0.354992742048978   0.768666849125019   0.361287975319584   1.0
H10   H   0.612738682800163   0.511581246689907   0.839909453462816   1.0
H11   H   0.363873163390238   0.834167845370892   0.680515755925761   1.0
H12   H   0.576316700332264   0.661752523959173   0.559170577096204   1.0
H13   H   0.137578532894359   0.686304637231316   0.472344890125640   1.0
I14   I   0.376636814982881   0.104627178130336   0.215711404018577   1.0
I15   I   0.869711539203742   0.589764888623002   0.184236887777445   1.0
I16   I   0.880521894996079   0.054228251346984   0.675692869343074   1.0
N17   N   0.300255150170663   0.658536005964436   0.439245248151117   1.0
Pb18   Pb   0.880489388424152   0.086384105136013   0.078610755990525   1.0




# HOIP entry ID:                    1241
# Khazana ID:                       3091
# Organic cation source:            S.Kataoka et al., J. Am. Chem. Soc. 137, 4158 (2015)
# Label:                            Propylammonium Lead Iodide
# Material class:                   Hybrid organic-inorganic perovskite ( MC_ino )
# Geometry class:                   Bulk crystalline materials ( GC_cry )
# Organic cation chemical formula:  CH3CH2CH2NH3
# Number of atom types:             5
# Total number of atoms:            18
# Atom types:                       C H N  Pb I
# Number of each atom:              3 10 1  1 3
# Bandgap, HSE06 (eV):              2.7651
# Bandgap, GGA (eV):                2.006
# Kpoint for VBM:                   0.5, 0.5, 0
# Kpoint for CBM:                   -0.3333, 0.3333, 0.5
# Dielectric constant, electronic:  4.2057
# Dielectric constant, ionic:       5.0266
# Dielectric constant, total:       9.2323
# Refractive index:                 2.0508
# Atomization energy (eV/atom):     -4.3192
# Relative energy1 (eV/atom):       0.1378
# Relative energy2 (eV/atom):       0.2627
# Volume of the unit cell (A^3):    308.24
# Density (g/cm^3):                 3.4911
# Tool:                             VASP
# Pseudopotential:                  PAW
# Note:                             ENCUT=400eV, k-spacing_relax=0.20/Angstrom, k-spacing_bandgap=0.15/Angstrom
# Created by:                       C.Kim, T.D.Huan, S.Krishnan, R. Ramprasad