data_1
_audit_creation_method   'Generated by vasp2cif'
_cell_length_a    6.37612723871
_cell_length_b    6.48480000718
_cell_length_c    7.6760181642
_cell_angle_alpha    100.164011664
_cell_angle_beta    81.5819970306
_cell_angle_gamma    89.2412072952

_symmetry_space_group_name_H-M    'P 1'
loop_
_atom_site_label
_atom_site_type_symbol
_atom_site_fract_x
_atom_site_fract_y
_atom_site_fract_z
_atom_site_occupancy
C1   C   0.499183141817745   0.599727129056681   0.620375492989318   1.0
C2   C   0.409036945009014   0.440961498206747   0.733283429825633   1.0
C3   C   0.528730029719355   0.445875125073613   0.893102551558123   1.0
H4   H   0.508696893050157   0.599509243381547   0.980974232324421   1.0
H5   H   0.470741700730919   0.328073989359979   0.971911258388253   1.0
H6   H   0.424422618452695   0.283521254570317   0.650729399257052   1.0
H7   H   0.238764676387120   0.475807640362014   0.779355609716511   1.0
H8   H   0.406890831226661   0.439298503764270   0.379464544580955   1.0
H9   H   0.450415644131468   0.693757189044739   0.376401522606507   1.0
H10   H   0.698556066626971   0.412496891054403   0.847539134345162   1.0
H11   H   0.475388687645264   0.761160654740777   0.693191204230146   1.0
H12   H   0.668166040751196   0.569089138088273   0.571247351123006   1.0
H13   H   0.229748493237707   0.627194310633065   0.492479829361216   1.0
I14   I   0.465635228924597   0.033427131888693   0.233834894851476   1.0
I15   I   0.958976588136366   0.521117007588117   0.199382766041253   1.0
I16   I   0.974544025160803   0.977111553221519   0.695860999255984   1.0
N17   N   0.389898624964310   0.588598480068612   0.456168482951924   1.0
Pb18   Pb   0.970143764027661   0.017543259896613   0.100887296593264   1.0




# HOIP entry ID:                    1242
# Khazana ID:                       3092
# Organic cation source:            S.Kataoka et al., J. Am. Chem. Soc. 137, 4158 (2015)
# Label:                            Propylammonium Lead Iodide
# Material class:                   Hybrid organic-inorganic perovskite ( MC_ino )
# Geometry class:                   Bulk crystalline materials ( GC_cry )
# Organic cation chemical formula:  CH3CH2CH2NH3
# Number of atom types:             5
# Total number of atoms:            18
# Atom types:                       C H N  Pb I
# Number of each atom:              3 10 1  1 3
# Bandgap, HSE06 (eV):              2.7546
# Bandgap, GGA (eV):                1.9962
# Kpoint for VBM:                   0.5, 0.5, 0
# Kpoint for CBM:                   -0.3333, 0.3333, 0.5
# Dielectric constant, electronic:  4.2244
# Dielectric constant, ionic:       5.3877
# Dielectric constant, total:       9.6121
# Refractive index:                 2.0553
# Atomization energy (eV/atom):     -4.3195
# Relative energy1 (eV/atom):       0.1376
# Relative energy2 (eV/atom):       0.2625
# Volume of the unit cell (A^3):    308.79
# Density (g/cm^3):                 3.4849
# Tool:                             VASP
# Pseudopotential:                  PAW
# Note:                             ENCUT=400eV, k-spacing_relax=0.20/Angstrom, k-spacing_bandgap=0.15/Angstrom
# Created by:                       C.Kim, T.D.Huan, S.Krishnan, R. Ramprasad