data_1
_audit_creation_method   'Generated by vasp2cif'
_cell_length_a    6.64544341208
_cell_length_b    6.57785690341
_cell_length_c    6.88331732354
_cell_angle_alpha    97.0245388488
_cell_angle_beta    83.9785669055
_cell_angle_gamma    93.1280410047

_symmetry_space_group_name_H-M    'P 1'
loop_
_atom_site_label
_atom_site_type_symbol
_atom_site_fract_x
_atom_site_fract_y
_atom_site_fract_z
_atom_site_occupancy
C1   C   0.508104478890480   0.563167411242063   0.613748217468221   1.0
C2   C   0.493690732278388   0.435750646859184   0.785728496893434   1.0
C3   C   0.570359029580857   0.218819290966245   0.726332096924253   1.0
H4   H   0.720731625689616   0.224158072572635   0.644382383806196   1.0
H5   H   0.582342244425057   0.142773536354561   0.856445786702345   1.0
H6   H   0.337438420464935   0.430760466330099   0.856067686584510   1.0
H7   H   0.586527883100182   0.518465899220971   0.894751306459213   1.0
H8   H   0.407946306949782   0.322490350379553   0.400034044725288   1.0
H9   H   0.383161746212274   0.560063701617381   0.342751886772987   1.0
H10   H   0.468124242410568   0.122299646490347   0.635576204985774   1.0
H11   H   0.459330394203199   0.719180565301968   0.657763464441281   1.0
H12   H   0.660885668296025   0.567873401483261   0.538819262069644   1.0
H13   H   0.220939377060752   0.468800913182349   0.513398374464856   1.0
I14   I   0.448539726717186   0.921768561628255   0.195793908348705   1.0
I15   I   0.936450943969554   0.402312346337844   0.168143578133268   1.0
I16   I   0.014891049006579   0.861325537088184   0.687236486486846   1.0
N17   N   0.371188726991434   0.470180055701277   0.457444652370235   1.0
Pb18   Pb   0.957947403753188   0.908939597243766   0.138252162362868   1.0




# HOIP entry ID:                    1243
# Khazana ID:                       3093
# Organic cation source:            S.Kataoka et al., J. Am. Chem. Soc. 137, 4158 (2015)
# Label:                            Propylammonium Lead Iodide
# Material class:                   Hybrid organic-inorganic perovskite ( MC_ino )
# Geometry class:                   Bulk crystalline materials ( GC_cry )
# Organic cation chemical formula:  CH3CH2CH2NH3
# Number of atom types:             5
# Total number of atoms:            18
# Atom types:                       C H N  Pb I
# Number of each atom:              3 10 1  1 3
# Bandgap, HSE06 (eV):              2.583
# Bandgap, GGA (eV):                1.6953
# Kpoint for VBM:                   0.5, 0.5, 0.3158
# Kpoint for CBM:                   0.5, 0.5, 0.5
# Dielectric constant, electronic:  4.7605
# Dielectric constant, ionic:       14.7503
# Dielectric constant, total:       19.5107
# Refractive index:                 2.1818
# Atomization energy (eV/atom):     -4.3189
# Relative energy1 (eV/atom):       0.1381
# Relative energy2 (eV/atom):       0.263
# Volume of the unit cell (A^3):    296.72
# Density (g/cm^3):                 3.6267
# Tool:                             VASP
# Pseudopotential:                  PAW
# Note:                             ENCUT=400eV, k-spacing_relax=0.20/Angstrom, k-spacing_bandgap=0.15/Angstrom
# Created by:                       C.Kim, T.D.Huan, S.Krishnan, R. Ramprasad