data_1
_audit_creation_method   'Generated by vasp2cif'
_cell_length_a    6.71896980896
_cell_length_b    6.75170042521
_cell_length_c    6.71996647161
_cell_angle_alpha    80.1547571637
_cell_angle_beta    89.5837461377
_cell_angle_gamma    84.3889114453

_symmetry_space_group_name_H-M    'P 1'
loop_
_atom_site_label
_atom_site_type_symbol
_atom_site_fract_x
_atom_site_fract_y
_atom_site_fract_z
_atom_site_occupancy
C1   C   0.584947561419860   0.586990040356682   0.357818160898020   1.0
C2   C   0.613015317830218   0.407395238408398   0.246856212716189   1.0
C3   C   0.420775248805690   0.304570465575935   0.233118617656999   1.0
H4   H   0.298792494047490   0.411231095679348   0.159686912172333   1.0
H5   H   0.446353075905314   0.181857568469219   0.146380018145244   1.0
H6   H   0.733135633193704   0.297780066953187   0.320144725969207   1.0
H7   H   0.667004155067360   0.464344747774191   0.095438137392009   1.0
H8   H   0.592524422965212   0.397925491179144   0.646214739463630   1.0
H9   H   0.359583057159234   0.487931670389138   0.571191834276604   1.0
H10   H   0.369272289764467   0.237171399573128   0.382143144096204   1.0
H11   H   0.724948692379854   0.650936565560919   0.376588608505379   1.0
H12   H   0.475086959467291   0.706270127532882   0.283955511144036   1.0
H13   H   0.512597446170751   0.639028934145195   0.652960423719492   1.0
I14   I   0.552604856244905   0.954838146390117   0.806269136529863   1.0
I15   I   0.012815315534475   0.415143550739899   0.772248329991768   1.0
I16   I   0.048168648182653   0.909119115999239   0.317672083480467   1.0
N17   N   0.506178333465392   0.522645442198225   0.570787236304142   1.0
Pb18   Pb   0.045206492396169   0.943520333075156   0.853906167538590   1.0




# HOIP entry ID:                    1244
# Khazana ID:                       3094
# Organic cation source:            S.Kataoka et al., J. Am. Chem. Soc. 137, 4158 (2015)
# Label:                            Propylammonium Lead Iodide
# Material class:                   Hybrid organic-inorganic perovskite ( MC_ino )
# Geometry class:                   Bulk crystalline materials ( GC_cry )
# Organic cation chemical formula:  CH3CH2CH2NH3
# Number of atom types:             5
# Total number of atoms:            18
# Atom types:                       C H N  Pb I
# Number of each atom:              3 10 1  1 3
# Bandgap, HSE06 (eV):              2.5934
# Bandgap, GGA (eV):                1.7363
# Kpoint for VBM:                   0.5, 0.5, 0.5
# Kpoint for CBM:                   0.5, 0.5, 0.5
# Dielectric constant, electronic:  4.6617
# Dielectric constant, ionic:       12.2162
# Dielectric constant, total:       16.8778
# Refractive index:                 2.1591
# Atomization energy (eV/atom):     -4.3188
# Relative energy1 (eV/atom):       0.1383
# Relative energy2 (eV/atom):       0.2632
# Volume of the unit cell (A^3):    298.91
# Density (g/cm^3):                 3.6001
# Tool:                             VASP
# Pseudopotential:                  PAW
# Note:                             ENCUT=400eV, k-spacing_relax=0.20/Angstrom, k-spacing_bandgap=0.15/Angstrom
# Created by:                       C.Kim, T.D.Huan, S.Krishnan, R. Ramprasad