data_1
_audit_creation_method   'Generated by vasp2cif'
_cell_length_a    6.68365945118
_cell_length_b    6.54717306899
_cell_length_c    6.82326157569
_cell_angle_alpha    83.899085005
_cell_angle_beta    83.0524314305
_cell_angle_gamma    84.8492672224

_symmetry_space_group_name_H-M    'P 1'
loop_
_atom_site_label
_atom_site_type_symbol
_atom_site_fract_x
_atom_site_fract_y
_atom_site_fract_z
_atom_site_occupancy
C1   C   0.539513523420624   0.608925098290634   0.341900595292074   1.0
C2   C   0.536013160530480   0.469588163382632   0.177084026261525   1.0
C3   C   0.430519132389698   0.271970446375029   0.247996639926079   1.0
H4   H   0.278156391613656   0.308763138633381   0.320624641624114   1.0
H5   H   0.416811684269320   0.185919786878635   0.122791035622797   1.0
H6   H   0.690774489893556   0.434383858738904   0.107558660533492   1.0
H7   H   0.454679634510008   0.559907359491191   0.062707759262480   1.0
H8   H   0.823914253408283   0.490358550597975   0.435943573820389   1.0
H9   H   0.630812017133081   0.367889274355825   0.560674438487297   1.0
H10   H   0.514044028415356   0.168990101320233   0.352518569054162   1.0
H11   H   0.600189217267108   0.756186806196474   0.287563048171201   1.0
H12   H   0.389930280251477   0.636047194299195   0.422482306755484   1.0
H13   H   0.673003061744922   0.605403886776820   0.609103078672256   1.0
I14   I   0.593258091595089   0.966320485467385   0.775658947814392   1.0
I15   I   0.102445401257057   0.453291704460121   0.791079893435395   1.0
I16   I   0.015820950901293   0.915695861938310   0.275984571719277   1.0
N17   N   0.675483927884429   0.509627320360387   0.496910195771328   1.0
Pb18   Pb   0.085020753514527   0.956690962436902   0.820798017776156   1.0




# HOIP entry ID:                    1246
# Khazana ID:                       3096
# Organic cation source:            S.Kataoka et al., J. Am. Chem. Soc. 137, 4158 (2015)
# Label:                            Propylammonium Lead Iodide
# Material class:                   Hybrid organic-inorganic perovskite ( MC_ino )
# Geometry class:                   Bulk crystalline materials ( GC_cry )
# Organic cation chemical formula:  CH3CH2CH2NH3
# Number of atom types:             5
# Total number of atoms:            18
# Atom types:                       C H N  Pb I
# Number of each atom:              3 10 1  1 3
# Bandgap, HSE06 (eV):              2.52
# Bandgap, GGA (eV):                1.6076
# Kpoint for VBM:                   0.5, 0.5, 0.2895
# Kpoint for CBM:                   0.5, 0.5, 0.5
# Dielectric constant, electronic:  4.8513
# Dielectric constant, ionic:       20.0569
# Dielectric constant, total:       24.9083
# Refractive index:                 2.2026
# Atomization energy (eV/atom):     -4.3185
# Relative energy1 (eV/atom):       0.1386
# Relative energy2 (eV/atom):       0.2635
# Volume of the unit cell (A^3):    293.81
# Density (g/cm^3):                 3.6626
# Tool:                             VASP
# Pseudopotential:                  PAW
# Note:                             ENCUT=400eV, k-spacing_relax=0.20/Angstrom, k-spacing_bandgap=0.15/Angstrom
# Created by:                       C.Kim, T.D.Huan, S.Krishnan, R. Ramprasad