data_1
_audit_creation_method   'Generated by vasp2cif'
_cell_length_a    8.7800313696
_cell_length_b    4.80558313317
_cell_length_c    9.66618952095
_cell_angle_alpha    104.813218637
_cell_angle_beta    123.00157462
_cell_angle_gamma    59.6075965816

_symmetry_space_group_name_H-M    'P 1'
loop_
_atom_site_label
_atom_site_type_symbol
_atom_site_fract_x
_atom_site_fract_y
_atom_site_fract_z
_atom_site_occupancy
C1   C   0.180173050137178   0.381836007855090   0.595435988188438   1.0
C2   C   0.250864719689808   0.633320907542647   0.619779795785476   1.0
C3   C   0.406621553057351   0.643562793530953   0.800484921300514   1.0
H4   H   0.337677438050894   0.725688349896199   0.878977777319599   1.0
H5   H   0.466659829305317   0.807100181959544   0.815767307753106   1.0
H6   H   0.314509150585567   0.579272016993094   0.539625213487024   1.0
H7   H   0.117887308547822   0.869870699923541   0.581605926865066   1.0
H8   H   0.927800903005022   0.583025122619965   0.357120560078693   1.0
H9   H   0.863535622545440   0.681618933102464   0.502745704637907   1.0
H10   H   0.267688215233456   0.151691714429691   0.557243739779476   1.0
H11   H   0.536244735954871   0.406360805507781   0.846518251963718   1.0
H12   H   0.189114049261726   0.342102561988012   0.706491415491265   1.0
H13   H   0.913421427946649   0.313716816890826   0.422310894915318   1.0
I14   I   0.789556784415559   0.972999982626227   0.137717997644283   1.0
I15   I   0.380253099610700   0.997444190387405   0.275308447439573   1.0
I16   I   0.840410653989960   0.229666445817889   0.726247538175027   1.0
N17   N   0.957500703099762   0.495011380057899   0.461568158368050   1.0
Pb18   Pb   0.100870755562866   0.629531088870838   0.017740360807483   1.0




# HOIP entry ID:                    1249
# Khazana ID:                       3099
# Organic cation source:            S.Kataoka et al., J. Am. Chem. Soc. 137, 4158 (2015)
# Label:                            Propylammonium Lead Iodide
# Material class:                   Hybrid organic-inorganic perovskite ( MC_ino )
# Geometry class:                   Bulk crystalline materials ( GC_cry )
# Organic cation chemical formula:  CH3CH2CH2NH3
# Number of atom types:             5
# Total number of atoms:            18
# Atom types:                       C H N  Pb I
# Number of each atom:              3 10 1  1 3
# Bandgap, HSE06 (eV):              3.3625
# Bandgap, GGA (eV):                2.4987
# Kpoint for VBM:                   0.1, 0.1, 0.3
# Kpoint for CBM:                   0.3, 0, 0.1
# Dielectric constant, electronic:  4.1321
# Dielectric constant, ionic:       9.6922
# Dielectric constant, total:       13.8243
# Refractive index:                 2.0327
# Atomization energy (eV/atom):     -4.3099
# Relative energy1 (eV/atom):       0.1471
# Relative energy2 (eV/atom):       0.2721
# Volume of the unit cell (A^3):    294.93
# Density (g/cm^3):                 3.6487
# Tool:                             VASP
# Pseudopotential:                  PAW
# Note:                             ENCUT=400eV, k-spacing_relax=0.20/Angstrom, k-spacing_bandgap=0.15/Angstrom
# Created by:                       C.Kim, T.D.Huan, S.Krishnan, R. Ramprasad