data_1
_audit_creation_method   'Generated by vasp2cif'
_cell_length_a    8.84827536275
_cell_length_b    4.94292229928
_cell_length_c    8.07903068562
_cell_angle_alpha    81.9794414773
_cell_angle_beta    59.9124578201
_cell_angle_gamma    96.9194098796

_symmetry_space_group_name_H-M    'P 1'
loop_
_atom_site_label
_atom_site_type_symbol
_atom_site_fract_x
_atom_site_fract_y
_atom_site_fract_z
_atom_site_occupancy
C1   C   0.637242343768129   0.629078254344456   0.919299076458934   1.0
C2   C   0.644553232342375   0.832109546360307   0.753797081256316   1.0
C3   C   0.799333068480934   0.088286285453592   0.674351784732657   1.0
H4   H   0.794908276421054   0.174730311219598   0.793881074666523   1.0
H5   H   0.795313699855228   0.251693518991672   0.571599585806403   1.0
H6   H   0.663912121882369   0.728474695520624   0.635367846423584   1.0
H7   H   0.516062122248023   0.894823402421949   0.807095734415611   1.0
H8   H   0.465358497058993   0.298003712215596   0.908102407540156   1.0
H9   H   0.363991156720431   0.428535660388015   0.106093622803684   1.0
H10   H   0.760133338422072   0.551422281507293   0.864664567643558   1.0
H11   H   0.929183763100383   0.032099961413870   0.595224603727175   1.0
H12   H   0.617836019641331   0.725802150692033   0.040151823446180   1.0
H13   H   0.501778528152911   0.217931040549900   0.094727303686497   1.0
I14   I   0.154598917643213   0.733960188870569   0.294798042339146   1.0
I15   I   0.270627384093608   0.346069582124684   0.718256053449238   1.0
I16   I   0.706413196440451   0.104301114151674   0.254527366771462   1.0
N17   N   0.483223178868073   0.374208831135491   0.011393249348075   1.0
Pb18   Pb   0.011601154860522   0.743259462638797   0.016598775484731   1.0




# HOIP entry ID:                    1250
# Khazana ID:                       3100
# Organic cation source:            S.Kataoka et al., J. Am. Chem. Soc. 137, 4158 (2015)
# Label:                            Propylammonium Lead Iodide
# Material class:                   Hybrid organic-inorganic perovskite ( MC_ino )
# Geometry class:                   Bulk crystalline materials ( GC_cry )
# Organic cation chemical formula:  CH3CH2CH2NH3
# Number of atom types:             5
# Total number of atoms:            18
# Atom types:                       C H N  Pb I
# Number of each atom:              3 10 1  1 3
# Bandgap, HSE06 (eV):              3.2265
# Bandgap, GGA (eV):                2.375
# Kpoint for VBM:                   0.25, -0.25, 0.0714
# Kpoint for CBM:                   0, 0, 0.5
# Dielectric constant, electronic:  4.1202
# Dielectric constant, ionic:       7.3126
# Dielectric constant, total:       11.4328
# Refractive index:                 2.0298
# Atomization energy (eV/atom):     -4.3108
# Relative energy1 (eV/atom):       0.1462
# Relative energy2 (eV/atom):       0.2712
# Volume of the unit cell (A^3):    295.17
# Density (g/cm^3):                 3.6457
# Tool:                             VASP
# Pseudopotential:                  PAW
# Note:                             ENCUT=400eV, k-spacing_relax=0.20/Angstrom, k-spacing_bandgap=0.15/Angstrom
# Created by:                       C.Kim, T.D.Huan, S.Krishnan, R. Ramprasad