data_1
_audit_creation_method   'Generated by vasp2cif'
_cell_length_a    8.93411734561
_cell_length_b    4.9401155114
_cell_length_c    8.72623613486
_cell_angle_alpha    96.9286463009
_cell_angle_beta    121.354809734
_cell_angle_gamma    65.0989026172

_symmetry_space_group_name_H-M    'P 1'
loop_
_atom_site_label
_atom_site_type_symbol
_atom_site_fract_x
_atom_site_fract_y
_atom_site_fract_z
_atom_site_occupancy
C1   C   0.154245709627555   0.465096818256495   0.656435064638107   1.0
C2   C   0.299571705657981   0.526932227000072   0.640998752554572   1.0
C3   C   0.393418877231681   0.691936015947503   0.798626864537221   1.0
H4   H   0.499026181432988   0.538523930356245   0.924617726516923   1.0
H5   H   0.285612829151324   0.872322410757896   0.821990766669479   1.0
H6   H   0.410897927761612   0.315751588345199   0.641693468941679   1.0
H7   H   0.226325835494373   0.659249574874693   0.509973724084141   1.0
H8   H   0.144757019156928   0.142965906590887   0.468470404769402   1.0
H9   H   0.950378971523384   0.470672472450386   0.383342462994969   1.0
H10   H   0.225430426088672   0.317495106444512   0.780489272013811   1.0
H11   H   0.469736891287191   0.787502470201548   0.772846959728393   1.0
H12   H   0.040118386141638   0.673211038149335   0.653394998608547   1.0
H13   H   0.975020485742158   0.233746826510966   0.525017798029444   1.0
I14   I   0.755623592051196   0.959638118707064   0.167904335871002   1.0
I15   I   0.322198315872914   0.988988394163729   0.264560321784202   1.0
I16   I   0.796887774267989   0.273659727101946   0.702591959057435   1.0
N17   N   0.051025861295160   0.313912760431630   0.499200498988863   1.0
Pb18   Pb   0.021323210215184   0.684914613709900   0.012194620211790   1.0




# HOIP entry ID:                    1251
# Khazana ID:                       3101
# Organic cation source:            S.Kataoka et al., J. Am. Chem. Soc. 137, 4158 (2015)
# Label:                            Propylammonium Lead Iodide
# Material class:                   Hybrid organic-inorganic perovskite ( MC_ino )
# Geometry class:                   Bulk crystalline materials ( GC_cry )
# Organic cation chemical formula:  CH3CH2CH2NH3
# Number of atom types:             5
# Total number of atoms:            18
# Atom types:                       C H N  Pb I
# Number of each atom:              3 10 1  1 3
# Bandgap, HSE06 (eV):              3.2223
# Bandgap, GGA (eV):                2.3763
# Kpoint for VBM:                   -0.4, 0.2222, 0.4167
# Kpoint for CBM:                   0.4, 0, 0.0833
# Dielectric constant, electronic:  4.0943
# Dielectric constant, ionic:       6.7012
# Dielectric constant, total:       10.7955
# Refractive index:                 2.0234
# Atomization energy (eV/atom):     -4.3108
# Relative energy1 (eV/atom):       0.1463
# Relative energy2 (eV/atom):       0.2712
# Volume of the unit cell (A^3):    295.9
# Density (g/cm^3):                 3.6367
# Tool:                             VASP
# Pseudopotential:                  PAW
# Note:                             ENCUT=400eV, k-spacing_relax=0.20/Angstrom, k-spacing_bandgap=0.15/Angstrom
# Created by:                       C.Kim, T.D.Huan, S.Krishnan, R. Ramprasad