data_1
_audit_creation_method   'Generated by vasp2cif'
_cell_length_a    6.37424768846
_cell_length_b    6.42346269624
_cell_length_c    10.5239850637
_cell_angle_alpha    61.0193355479
_cell_angle_beta    123.526683743
_cell_angle_gamma    94.236309828

_symmetry_space_group_name_H-M    'P 1'
loop_
_atom_site_label
_atom_site_type_symbol
_atom_site_fract_x
_atom_site_fract_y
_atom_site_fract_z
_atom_site_occupancy
C1   C   0.887174902221552   0.594406878290876   0.386197765820412   1.0
C2   C   0.707353189944996   0.779736287636695   0.359335758891668   1.0
C3   C   0.555222027351078   0.003304294153487   0.165420725412062   1.0
H4   H   0.689402507990444   0.093213040095833   0.137011919522301   1.0
H5   H   0.427253716149551   0.137133787898691   0.145257337508305   1.0
H6   H   0.573495286600490   0.691102184775275   0.389549507502117   1.0
H7   H   0.823353286532182   0.840171376134741   0.453629606040110   1.0
H8   H   0.950529462800425   0.300008569362156   0.628370825387982   1.0
H9   H   0.186294985534005   0.442828971492659   0.664690389652606   1.0
H10   H   0.777626054425006   0.512428752048265   0.306456075087937   1.0
H11   H   0.435393718672095   0.949471559056150   0.067668351919586   1.0
H12   H   0.019174067068860   0.677928652993607   0.352794538255346   1.0
H13   H   0.170982577265455   0.247100754272473   0.599649926919767   1.0
I14   I   0.307949148772529   0.707217023976902   0.838455056493324   1.0
I15   I   0.782533783326400   0.213503209338270   0.836542541310813   1.0
I16   I   0.294076660244578   0.209660093983956   0.367040259245201   1.0
N17   N   0.060241746439687   0.381178010787643   0.582179589413116   1.0
Pb18   Pb   0.921142878660667   0.597196553702339   0.959359825617426   1.0




# HOIP entry ID:                    1252
# Khazana ID:                       3102
# Organic cation source:            S.Kataoka et al., J. Am. Chem. Soc. 137, 4158 (2015)
# Label:                            Propylammonium Lead Iodide
# Material class:                   Hybrid organic-inorganic perovskite ( MC_ino )
# Geometry class:                   Bulk crystalline materials ( GC_cry )
# Organic cation chemical formula:  CH3CH2CH2NH3
# Number of atom types:             5
# Total number of atoms:            18
# Atom types:                       C H N  Pb I
# Number of each atom:              3 10 1  1 3
# Bandgap, HSE06 (eV):              2.6842
# Bandgap, GGA (eV):                1.9704
# Kpoint for VBM:                   0.5, 0.5, 0
# Kpoint for CBM:                   0.3571, 0.3571, 0.5
# Dielectric constant, electronic:  4.3173
# Dielectric constant, ionic:       6.1134
# Dielectric constant, total:       10.4307
# Refractive index:                 2.0778
# Atomization energy (eV/atom):     -4.3157
# Relative energy1 (eV/atom):       0.1414
# Relative energy2 (eV/atom):       0.2663
# Volume of the unit cell (A^3):    302.94
# Density (g/cm^3):                 3.5522
# Tool:                             VASP
# Pseudopotential:                  PAW
# Note:                             ENCUT=400eV, k-spacing_relax=0.20/Angstrom, k-spacing_bandgap=0.15/Angstrom
# Created by:                       C.Kim, T.D.Huan, S.Krishnan, R. Ramprasad