data_1
_audit_creation_method   'Generated by vasp2cif'
_cell_length_a    7.80756647021
_cell_length_b    6.62244547139
_cell_length_c    6.57861397942
_cell_angle_alpha    86.760830757
_cell_angle_beta    99.3997624139
_cell_angle_gamma    104.244853054

_symmetry_space_group_name_H-M    'P 1'
loop_
_atom_site_label
_atom_site_type_symbol
_atom_site_fract_x
_atom_site_fract_y
_atom_site_fract_z
_atom_site_occupancy
C1   C   0.198791242444457   0.671212181998087   0.486019678828688   1.0
C2   C   0.495818353081028   0.275078431710038   0.488133956564477   1.0
C3   C   0.334643559813864   0.370777839345200   0.441385945135879   1.0
C4   C   0.354849166536347   0.570326233675311   0.561305457157846   1.0
H5   H   0.604602562023467   0.380279869519311   0.214555403128590   1.0
H6   H   0.754299561672056   0.327534135927911   0.405134913593696   1.0
H7   H   0.687300175377611   0.549618535808080   0.407339604256406   1.0
H8   H   0.191717257486492   0.708181047188719   0.321159599414697   1.0
H9   H   0.071565536742195   0.565415087485937   0.510870654818004   1.0
H10   H   0.212929625597308   0.814589904414456   0.567750095913356   1.0
H11   H   0.217828404968924   0.253238800726983   0.478814127913080   1.0
H12   H   0.306574805243938   0.401621001949969   0.274648079628782   1.0
H13   H   0.361583985723255   0.532026482527424   0.726812768677525   1.0
H14   H   0.480976665263704   0.682923592739605   0.542808199957284   1.0
H15   H   0.552788478875730   0.283013175849151   0.650759046172882   1.0
H16   H   0.465163295584665   0.114223389902715   0.438377903219027   1.0
I17   I   0.357845011326210   0.021873742912005   0.976909995868603   1.0
I18   I   0.841729888605359   0.957159448092398   0.426212870254814   1.0
I19   I   0.894092952048567   0.456690222100128   0.935308365111098   1.0
N20   N   0.645252873988053   0.392898136029793   0.371799611883741   1.0
Pb21   Pb   0.953356597596800   0.954388740096768   0.931623722501546   1.0




# HOIP entry ID:                    1253
# Khazana ID:                       3103
# Organic cation source:            H. Hu et al., Sci. Rep. 6, 33546 (2016)
# Label:                            Butylammonium Lead Iodide
# Material class:                   Hybrid organic-inorganic perovskite ( MC_ino )
# Geometry class:                   Bulk crystalline materials ( GC_cry )
# Organic cation chemical formula:  CH3CH2CH2CH2NH3
# Number of atom types:             5
# Total number of atoms:            21
# Atom types:                       C H N  Pb I
# Number of each atom:              4 12 1  1 3
# Bandgap, HSE06 (eV):              2.7329
# Bandgap, GGA (eV):                1.9936
# Kpoint for VBM:                   0.1, 0.5, 0.5
# Kpoint for CBM:                   0.5, 0.5, 0.5
# Dielectric constant, electronic:  4.2158
# Dielectric constant, ionic:       7.9398
# Dielectric constant, total:       12.1556
# Refractive index:                 2.0532
# Atomization energy (eV/atom):     -4.4242
# Relative energy1 (eV/atom):       0.0748
# Relative energy2 (eV/atom):       0.1819
# Volume of the unit cell (A^3):    325.22
# Density (g/cm^3):                 3.3805
# Tool:                             VASP
# Pseudopotential:                  PAW
# Note:                             ENCUT=400eV, k-spacing_relax=0.20/Angstrom, k-spacing_bandgap=0.15/Angstrom
# Created by:                       C.Kim, T.D.Huan, S.Krishnan, R. Ramprasad