data_1
_audit_creation_method   'Generated by vasp2cif'
_cell_length_a    6.57456932834
_cell_length_b    6.5640475354
_cell_length_c    7.91055027593
_cell_angle_alpha    75.9140104227
_cell_angle_beta    80.1065638117
_cell_angle_gamma    86.1639366116

_symmetry_space_group_name_H-M    'P 1'
loop_
_atom_site_label
_atom_site_type_symbol
_atom_site_fract_x
_atom_site_fract_y
_atom_site_fract_z
_atom_site_occupancy
C1   C   0.503650154854306   0.682432719386860   0.802788376035259   1.0
C2   C   0.504147527023974   0.288386335408340   0.503679338056450   1.0
C3   C   0.459160094684911   0.382854198981015   0.664554900483481   1.0
C4   C   0.570322422592149   0.589044789381205   0.641743237473612   1.0
H5   H   0.226907059738373   0.397095879231614   0.403465582645666   1.0
H6   H   0.413746628840492   0.340722629152516   0.251920350995007   1.0
H7   H   0.420098738290790   0.565403129215227   0.316485631708083   1.0
H8   H   0.336232140010559   0.709266165741141   0.824073983011232   1.0
H9   H   0.545796780870425   0.575483183926785   0.922135755350638   1.0
H10   H   0.577433608794799   0.831641477293530   0.785862141799406   1.0
H11   H   0.506468755993197   0.265640491428357   0.776234647214345   1.0
H12   H   0.291372732666140   0.406918436850809   0.699439476975947   1.0
H13   H   0.738310404824766   0.558933341078443   0.621827108076694   1.0
H14   H   0.536512985744068   0.704404794674993   0.522993779389033   1.0
H15   H   0.666517344069298   0.296957609875975   0.444612574473752   1.0
H16   H   0.455895875838287   0.126141425998497   0.533426128411627   1.0
I17   I   0.995176370253347   0.029037982409960   0.639505330041217   1.0
I18   I   0.445934540907828   0.975301174687701   0.153700619491573   1.0
I19   I   0.952711399067844   0.472068850446540   0.111755132280003   1.0
N20   N   0.383978956746695   0.407972896687092   0.359500961864356   1.0
Pb21   Pb   0.949675478187757   0.973182488143131   0.038574944223264   1.0




# HOIP entry ID:                    1254
# Khazana ID:                       3104
# Organic cation source:            H. Hu et al., Sci. Rep. 6, 33546 (2016)
# Label:                            Butylammonium Lead Iodide
# Material class:                   Hybrid organic-inorganic perovskite ( MC_ino )
# Geometry class:                   Bulk crystalline materials ( GC_cry )
# Organic cation chemical formula:  CH3CH2CH2CH2NH3
# Number of atom types:             5
# Total number of atoms:            21
# Atom types:                       C H N  Pb I
# Number of each atom:              4 12 1  1 3
# Bandgap, HSE06 (eV):              2.7786
# Bandgap, GGA (eV):                1.9361
# Kpoint for VBM:                   0.5, 0.5, 0
# Kpoint for CBM:                   0.5, 0.5, 0.5
# Dielectric constant, electronic:  4.171
# Dielectric constant, ionic:       6.7747
# Dielectric constant, total:       10.9458
# Refractive index:                 2.0423
# Atomization energy (eV/atom):     -4.4247
# Relative energy1 (eV/atom):       0.0743
# Relative energy2 (eV/atom):       0.1814
# Volume of the unit cell (A^3):    326.08
# Density (g/cm^3):                 3.3716
# Tool:                             VASP
# Pseudopotential:                  PAW
# Note:                             ENCUT=400eV, k-spacing_relax=0.20/Angstrom, k-spacing_bandgap=0.15/Angstrom
# Created by:                       C.Kim, T.D.Huan, S.Krishnan, R. Ramprasad