data_1
_audit_creation_method   'Generated by vasp2cif'
_cell_length_a    6.83536609608
_cell_length_b    7.42820690017
_cell_length_c    6.65299588656
_cell_angle_alpha    82.2438255435
_cell_angle_beta    93.3754701647
_cell_angle_gamma    108.563679924

_symmetry_space_group_name_H-M    'P 1'
loop_
_atom_site_label
_atom_site_type_symbol
_atom_site_fract_x
_atom_site_fract_y
_atom_site_fract_z
_atom_site_occupancy
C1   C   0.201578264038815   0.672773578059449   0.525976965296501   1.0
C2   C   0.433952385617147   0.275863560619889   0.427090434397151   1.0
C3   C   0.337296462196740   0.436051119463343   0.386090539156228   1.0
C4   C   0.291071820856601   0.507558707794864   0.579061119513341   1.0
H5   H   0.740190559269308   0.462494693259110   0.422925574312700   1.0
H6   H   0.719435839821060   0.241642164563217   0.532040790315456   1.0
H7   H   0.651670518568388   0.391996282593851   0.660552226389079   1.0
H8   H   0.314509442940988   0.797042594639407   0.444952147251520   1.0
H9   H   0.065824562263828   0.631847550083435   0.425777918597575   1.0
H10   H   0.157256066104424   0.715984875458574   0.661771010304463   1.0
H11   H   0.193050426142769   0.381435238775666   0.300213397698151   1.0
H12   H   0.436958032390592   0.555924142148946   0.285892336115595   1.0
H13   H   0.182146827196142   0.388224964943390   0.672880066694290   1.0
H14   H   0.431289137932133   0.555862660644358   0.673053640907135   1.0
H15   H   0.346923854888281   0.157670167341848   0.535307801597632   1.0
H16   H   0.452836680821292   0.220157082961812   0.288556523882775   1.0
I17   I   0.417723536560018   0.976661582213325   0.969122037709162   1.0
I18   I   0.844368439006615   0.961045718926556   0.478800475914177   1.0
I19   I   0.829072942112603   0.515112217258718   0.008984308759096   1.0
N20   N   0.650466325116511   0.349018936350440   0.518795374018055   1.0
Pb21   Pb   0.950287876155777   0.951962161899800   0.964335311169883   1.0




# HOIP entry ID:                    1255
# Khazana ID:                       3105
# Organic cation source:            H. Hu et al., Sci. Rep. 6, 33546 (2016)
# Label:                            Butylammonium Lead Iodide
# Material class:                   Hybrid organic-inorganic perovskite ( MC_ino )
# Geometry class:                   Bulk crystalline materials ( GC_cry )
# Organic cation chemical formula:  CH3CH2CH2CH2NH3
# Number of atom types:             5
# Total number of atoms:            21
# Atom types:                       C H N  Pb I
# Number of each atom:              4 12 1  1 3
# Bandgap, HSE06 (eV):              2.883
# Bandgap, GGA (eV):                1.9508
# Kpoint for VBM:                   0.5, 0.5, 0
# Kpoint for CBM:                   0.5, -0.3333, 0.3333
# Dielectric constant, electronic:  4.3461
# Dielectric constant, ionic:       5.6403
# Dielectric constant, total:       9.9864
# Refractive index:                 2.0847
# Atomization energy (eV/atom):     -4.4237
# Relative energy1 (eV/atom):       0.0753
# Relative energy2 (eV/atom):       0.1823
# Volume of the unit cell (A^3):    317.25
# Density (g/cm^3):                 3.4654
# Tool:                             VASP
# Pseudopotential:                  PAW
# Note:                             ENCUT=400eV, k-spacing_relax=0.20/Angstrom, k-spacing_bandgap=0.15/Angstrom
# Created by:                       C.Kim, T.D.Huan, S.Krishnan, R. Ramprasad