data_1
_audit_creation_method   'Generated by vasp2cif'
_cell_length_a    7.59358747062
_cell_length_b    5.42566708038
_cell_length_c    8.5716266628
_cell_angle_alpha    72.9436742888
_cell_angle_beta    79.6351347661
_cell_angle_gamma    92.5551888663

_symmetry_space_group_name_H-M    'P 1'
loop_
_atom_site_label
_atom_site_type_symbol
_atom_site_fract_x
_atom_site_fract_y
_atom_site_fract_z
_atom_site_occupancy
C1   C   0.490127194424268   0.661355651834810   0.786519789893674   1.0
C2   C   0.469593477752504   0.210029679427933   0.506136807598224   1.0
C3   C   0.412415766192723   0.331987273111856   0.644221509054184   1.0
C4   C   0.553484850307328   0.541623810347104   0.647426345396795   1.0
H5   H   0.340345246703919   0.452911134596732   0.327061138114715   1.0
H6   H   0.516048882632674   0.324592610844263   0.243172611445097   1.0
H7   H   0.550651335955358   0.573356670429995   0.314429665585315   1.0
H8   H   0.361037377549721   0.738709733021651   0.775869005649781   1.0
H9   H   0.472201448778520   0.516006621802326   0.909009896661452   1.0
H10   H   0.588924787416900   0.815751702501501   0.783306214121410   1.0
H11   H   0.389944335718703   0.176380882863121   0.763248264250770   1.0
H12   H   0.282894899750900   0.410808540616593   0.632210747712783   1.0
H13   H   0.679991332565031   0.456633301608676   0.663259121755033   1.0
H14   H   0.584799082554127   0.695797766302952   0.526778198597583   1.0
H15   H   0.606265489140036   0.152899487789696   0.501824668659026   1.0
H16   H   0.376168270527010   0.044172286039455   0.517144320631978   1.0
I17   I   0.996221511057918   0.802829606593825   0.716688476948761   1.0
I18   I   0.598249956551413   0.027699594074413   0.078613794387884   1.0
I19   I   0.011170622976742   0.510929080927127   0.266712212096841   1.0
N20   N   0.469353932492943   0.403716903955207   0.337934365740445   1.0
Pb21   Pb   0.013340198951255   0.058827661310779   0.995512845698229   1.0




# HOIP entry ID:                    1256
# Khazana ID:                       3106
# Organic cation source:            H. Hu et al., Sci. Rep. 6, 33546 (2016)
# Label:                            Butylammonium Lead Iodide
# Material class:                   Hybrid organic-inorganic perovskite ( MC_ino )
# Geometry class:                   Bulk crystalline materials ( GC_cry )
# Organic cation chemical formula:  CH3CH2CH2CH2NH3
# Number of atom types:             5
# Total number of atoms:            21
# Atom types:                       C H N  Pb I
# Number of each atom:              4 12 1  1 3
# Bandgap, HSE06 (eV):              3.3768
# Bandgap, GGA (eV):                2.4623
# Kpoint for VBM:                   0, 0.4286, 0
# Kpoint for CBM:                   0.5, 0.5, 0.5
# Dielectric constant, electronic:  3.7101
# Dielectric constant, ionic:       4.1107
# Dielectric constant, total:       7.8208
# Refractive index:                 1.9262
# Atomization energy (eV/atom):     -4.4174
# Relative energy1 (eV/atom):       0.0816
# Relative energy2 (eV/atom):       0.1886
# Volume of the unit cell (A^3):    330.33
# Density (g/cm^3):                 3.3282
# Tool:                             VASP
# Pseudopotential:                  PAW
# Note:                             ENCUT=400eV, k-spacing_relax=0.20/Angstrom, k-spacing_bandgap=0.15/Angstrom
# Created by:                       C.Kim, T.D.Huan, S.Krishnan, R. Ramprasad