data_1
_audit_creation_method   'Generated by vasp2cif'
_cell_length_a    6.85477882664
_cell_length_b    6.61150006479
_cell_length_c    6.60060380513
_cell_angle_alpha    82.0928052545
_cell_angle_beta    85.360795983
_cell_angle_gamma    91.9724298007

_symmetry_space_group_name_H-M    'P 1'
loop_
_atom_site_label
_atom_site_type_symbol
_atom_site_fract_x
_atom_site_fract_y
_atom_site_fract_z
_atom_site_occupancy
C1   C   0.422318681682078   0.708678261391107   0.190408471861438   1.0
C2   C   0.567931028412083   0.886041102900975   0.199587976840469   1.0
C3   C   0.487248391634061   0.038882426706941   0.334048252304598   1.0
H4   H   0.452756483489239   0.965235363029592   0.492796678094592   1.0
H5   H   0.589499245967467   0.169033762331495   0.333328389790388   1.0
H6   H   0.351864321299409   0.096009117794722   0.276106209465439   1.0
H7   H   0.854572950617573   0.918694781486792   0.299329813709605   1.0
H8   H   0.618675445916054   0.961386623766508   0.045293523505357   1.0
H9   H   0.486737175974348   0.590225821571970   0.109412611498790   1.0
H10   H   0.299160671932583   0.766920254465262   0.107905840695850   1.0
H11   H   0.366183866803098   0.639850957405159   0.345303478624956   1.0
H12   H   0.820325356954370   0.700644823315045   0.201229734704142   1.0
H13   H   0.719828371098473   0.722132365668486   0.435776225217047   1.0
I14   I   0.556860578656931   0.385336960926551   0.739807778617596   1.0
I15   I   0.019314240662972   0.862003211520680   0.754315265034883   1.0
I16   I   0.000856715398420   0.324276216673475   0.212217304573251   1.0
N17   N   0.753957285231564   0.800720445707000   0.289755807621844   1.0
Pb18   Pb   0.098419188269290   0.349857503338192   0.729956637839770   1.0




# HOIP entry ID:                    1257
# Khazana ID:                       3107
# Organic cation source:            C.C.Stoumpos et al., J. Am. Chem. Soc. 137, 6804 (2015)
# Label:                            Isopropylammonium Lead Iodide
# Material class:                   Hybrid organic-inorganic perovskite ( MC_ino )
# Geometry class:                   Bulk crystalline materials ( GC_cry )
# Organic cation chemical formula:  (CH3)2CHNH3
# Number of atom types:             5
# Total number of atoms:            18
# Atom types:                       C H N  Pb I
# Number of each atom:              3 10 1  1 3
# Bandgap, HSE06 (eV):              2.7485
# Bandgap, GGA (eV):                1.7753
# Kpoint for VBM:                   0.4737, 0.4737, 0.4737
# Kpoint for CBM:                   0.5, 0.5, 0.5
# Dielectric constant, electronic:  4.7794
# Dielectric constant, ionic:       11.2117
# Dielectric constant, total:       15.9911
# Refractive index:                 2.1862
# Atomization energy (eV/atom):     -4.323
# Relative energy1 (eV/atom):       0.14
# Relative energy2 (eV/atom):       0.2649
# Volume of the unit cell (A^3):    295.01
# Density (g/cm^3):                 3.6477
# Tool:                             VASP
# Pseudopotential:                  PAW
# Note:                             ENCUT=400eV, k-spacing_relax=0.20/Angstrom, k-spacing_bandgap=0.15/Angstrom
# Created by:                       C.Kim, T.D.Huan, S.Krishnan, R. Ramprasad