data_1
_audit_creation_method   'Generated by vasp2cif'
_cell_length_a    6.81387114156
_cell_length_b    6.63858914624
_cell_length_c    6.60396533866
_cell_angle_alpha    81.1873604986
_cell_angle_beta    85.6417534529
_cell_angle_gamma    91.8637993928

_symmetry_space_group_name_H-M    'P 1'
loop_
_atom_site_label
_atom_site_type_symbol
_atom_site_fract_x
_atom_site_fract_y
_atom_site_fract_z
_atom_site_occupancy
C1   C   0.440652643748955   0.642241318132804   0.354608366131906   1.0
C2   C   0.603594102851417   0.749472181294784   0.449397227362709   1.0
C3   C   0.533396904933689   0.834302720683745   0.642591951757602   1.0
H4   H   0.430761895787327   0.953964259812757   0.600978126246929   1.0
H5   H   0.456408345168597   0.715999248293187   0.757702296275838   1.0
H6   H   0.655586370787645   0.901108654093804   0.711045596558115   1.0
H7   H   0.872265632674328   0.662681634083846   0.578572991196623   1.0
H8   H   0.678864944118232   0.869679380926591   0.335662731716504   1.0
H9   H   0.326226825813279   0.750202119520658   0.316837621838111   1.0
H10   H   0.372934888614829   0.512061338086532   0.462700634690478   1.0
H11   H   0.494864578241675   0.587780783497713   0.213524442221214   1.0
H12   H   0.830878295330223   0.550440936890844   0.374579385664710   1.0
H13   H   0.705696946599389   0.469804166301586   0.604481042587892   1.0
I14   I   0.561017889574202   0.231097558436858   0.981801242948578   1.0
I15   I   0.016208537698631   0.683701944735461   0.979394620218571   1.0
I16   I   0.043924092030799   0.140021655344626   0.464758230755521   1.0
N17   N   0.764266124232954   0.596907498640775   0.504586819155051   1.0
Pb18   Pb   0.102180981793879   0.195342601223395   0.983526672673662   1.0




# HOIP entry ID:                    1259
# Khazana ID:                       3109
# Organic cation source:            C.C.Stoumpos et al., J. Am. Chem. Soc. 137, 6804 (2015)
# Label:                            Isopropylammonium Lead Iodide
# Material class:                   Hybrid organic-inorganic perovskite ( MC_ino )
# Geometry class:                   Bulk crystalline materials ( GC_cry )
# Organic cation chemical formula:  (CH3)2CHNH3
# Number of atom types:             5
# Total number of atoms:            18
# Atom types:                       C H N  Pb I
# Number of each atom:              3 10 1  1 3
# Bandgap, HSE06 (eV):              2.7435
# Bandgap, GGA (eV):                1.8532
# Kpoint for VBM:                   0.4211, 0.4211, 0.4211
# Kpoint for CBM:                   0.5, 0.5, 0.5
# Dielectric constant, electronic:  4.7961
# Dielectric constant, ionic:       12.1266
# Dielectric constant, total:       16.9227
# Refractive index:                 2.19
# Atomization energy (eV/atom):     -4.3246
# Relative energy1 (eV/atom):       0.1384
# Relative energy2 (eV/atom):       0.2634
# Volume of the unit cell (A^3):    294.05
# Density (g/cm^3):                 3.6596
# Tool:                             VASP
# Pseudopotential:                  PAW
# Note:                             ENCUT=400eV, k-spacing_relax=0.20/Angstrom, k-spacing_bandgap=0.15/Angstrom
# Created by:                       C.Kim, T.D.Huan, S.Krishnan, R. Ramprasad