data_1
_audit_creation_method   'Generated by vasp2cif'
_cell_length_a    6.7586528138
_cell_length_b    6.48745471172
_cell_length_c    6.79052872641
_cell_angle_alpha    93.4191729716
_cell_angle_beta    92.2256152858
_cell_angle_gamma    85.3654298215

_symmetry_space_group_name_H-M    'P 1'
loop_
_atom_site_label
_atom_site_type_symbol
_atom_site_fract_x
_atom_site_fract_y
_atom_site_fract_z
_atom_site_occupancy
C1   C   0.589832672959012   0.707040302554006   0.601368146314854   1.0
C2   C   0.450673328390366   0.539193630484114   0.632999939859097   1.0
C3   C   0.349168810088429   0.565242101134466   0.830267900420985   1.0
H4   H   0.461666421336538   0.560474675898341   0.950080172091496   1.0
H5   H   0.251198995678045   0.442237152936478   0.846882457821842   1.0
H6   H   0.262912325325054   0.715398538240855   0.843370991491859   1.0
H7   H   0.339433787867179   0.509079246068715   0.332286683048068   1.0
H8   H   0.527156686425641   0.384375669412662   0.611368191002853   1.0
H9   H   0.716755704220184   0.689613829877189   0.705320588011659   1.0
H10   H   0.646022598952889   0.693850679292723   0.452216203488284   1.0
H11   H   0.515011667974377   0.861909505085954   0.628192415177246   1.0
H12   H   0.182327683124498   0.440940756294886   0.493516238117692   1.0
H13   H   0.209811634833578   0.692667924422217   0.471060497937138   1.0
I14   I   0.988670899834709   0.093738054282476   0.593531069417935   1.0
I15   I   0.888369466376979   0.562260757719251   0.112117911960048   1.0
I16   I   0.434161761369310   0.086693746036517   0.149977646266350   1.0
N17   N   0.284650876917951   0.547076163261707   0.470495305120259   1.0
Pb18   Pb   0.898024678325307   0.066727266997439   0.120207642452371   1.0




# HOIP entry ID:                    1260
# Khazana ID:                       3110
# Organic cation source:            C.C.Stoumpos et al., J. Am. Chem. Soc. 137, 6804 (2015)
# Label:                            Isopropylammonium Lead Iodide
# Material class:                   Hybrid organic-inorganic perovskite ( MC_ino )
# Geometry class:                   Bulk crystalline materials ( GC_cry )
# Organic cation chemical formula:  (CH3)2CHNH3
# Number of atom types:             5
# Total number of atoms:            18
# Atom types:                       C H N  Pb I
# Number of each atom:              3 10 1  1 3
# Bandgap, HSE06 (eV):              2.6572
# Bandgap, GGA (eV):                1.703
# Kpoint for VBM:                   0.5, 0.5, 0.5
# Kpoint for CBM:                   0.5, 0.5, 0.4211
# Dielectric constant, electronic:  4.8397
# Dielectric constant, ionic:       21.5866
# Dielectric constant, total:       26.4263
# Refractive index:                 2.1999
# Atomization energy (eV/atom):     -4.3202
# Relative energy1 (eV/atom):       0.1428
# Relative energy2 (eV/atom):       0.2677
# Volume of the unit cell (A^3):    296.07
# Density (g/cm^3):                 3.6346
# Tool:                             VASP
# Pseudopotential:                  PAW
# Note:                             ENCUT=400eV, k-spacing_relax=0.20/Angstrom, k-spacing_bandgap=0.15/Angstrom
# Created by:                       C.Kim, T.D.Huan, S.Krishnan, R. Ramprasad