data_1
_audit_creation_method   'Generated by vasp2cif'
_cell_length_a    6.80519404906
_cell_length_b    6.48109145644
_cell_length_c    6.7757874887
_cell_angle_alpha    94.9262179556
_cell_angle_beta    87.9888841505
_cell_angle_gamma    94.0762819613

_symmetry_space_group_name_H-M    'P 1'
loop_
_atom_site_label
_atom_site_type_symbol
_atom_site_fract_x
_atom_site_fract_y
_atom_site_fract_z
_atom_site_occupancy
C1   C   0.549473612317037   0.752768407739971   0.314051940329890   1.0
C2   C   0.582376598961588   0.582374859060728   0.448870109891438   1.0
C3   C   0.785377082887599   0.601376211726013   0.538988550996379   1.0
H4   H   0.898287627237551   0.593223576480305   0.420612651998667   1.0
H5   H   0.802764221089390   0.476776148433523   0.634128807119446   1.0
H6   H   0.808942443426218   0.751185568037933   0.625544023417660   1.0
H7   H   0.288037701133760   0.562634007930782   0.576190438735239   1.0
H8   H   0.550985995614127   0.428193604423406   0.372309078599208   1.0
H9   H   0.647189416557246   0.734061316540945   0.183149255868585   1.0
H10   H   0.397877989725814   0.743491104756686   0.264510202966683   1.0
H11   H   0.583977916428289   0.906987226796524   0.389397594824459   1.0
H12   H   0.454458329979097   0.485482682757436   0.721462155309581   1.0
H13   H   0.440950469798850   0.739766809529399   0.699839742739378   1.0
I14   I   0.552462893127782   0.138535449816459   0.913382903780317   1.0
I15   I   0.060674198508032   0.607423956139151   0.004659528326300   1.0
I16   I   0.107979602201929   0.131111587674262   0.466037962968564   1.0
N17   N   0.430248261974327   0.594365387418819   0.623019370601590   1.0
Pb18   Pb   0.081995639031327   0.109312094737639   0.004245681526612   1.0




# HOIP entry ID:                    1261
# Khazana ID:                       3111
# Organic cation source:            C.C.Stoumpos et al., J. Am. Chem. Soc. 137, 6804 (2015)
# Label:                            Isopropylammonium Lead Iodide
# Material class:                   Hybrid organic-inorganic perovskite ( MC_ino )
# Geometry class:                   Bulk crystalline materials ( GC_cry )
# Organic cation chemical formula:  (CH3)2CHNH3
# Number of atom types:             5
# Total number of atoms:            18
# Atom types:                       C H N  Pb I
# Number of each atom:              3 10 1  1 3
# Bandgap, HSE06 (eV):              2.6193
# Bandgap, GGA (eV):                1.6849
# Kpoint for VBM:                   0.5, 0.5, 0.5
# Kpoint for CBM:                   0.4474, 0.5, 0.4474
# Dielectric constant, electronic:  4.7962
# Dielectric constant, ionic:       20.4337
# Dielectric constant, total:       25.23
# Refractive index:                 2.19
# Atomization energy (eV/atom):     -4.3206
# Relative energy1 (eV/atom):       0.1424
# Relative energy2 (eV/atom):       0.2674
# Volume of the unit cell (A^3):    296.86
# Density (g/cm^3):                 3.625
# Tool:                             VASP
# Pseudopotential:                  PAW
# Note:                             ENCUT=400eV, k-spacing_relax=0.20/Angstrom, k-spacing_bandgap=0.15/Angstrom
# Created by:                       C.Kim, T.D.Huan, S.Krishnan, R. Ramprasad