data_1
_audit_creation_method   'Generated by vasp2cif'
_cell_length_a    7.93167426725
_cell_length_b    4.87783190954
_cell_length_c    8.57082545988
_cell_angle_alpha    104.617111914
_cell_angle_beta    93.4688035937
_cell_angle_gamma    107.502547709

_symmetry_space_group_name_H-M    'P 1'
loop_
_atom_site_label
_atom_site_type_symbol
_atom_site_fract_x
_atom_site_fract_y
_atom_site_fract_z
_atom_site_occupancy
C1   C   0.676370265262612   0.926729373613931   0.630485120385579   1.0
C2   C   0.572030144554354   0.590868596737486   0.582627517252149   1.0
C3   C   0.463875913986236   0.503056421125933   0.714281926946761   1.0
H4   H   0.554352097941937   0.552600116690826   0.826429271212433   1.0
H5   H   0.384317081097393   0.265923954691019   0.678804814312102   1.0
H6   H   0.372897667999538   0.633395866472021   0.742754774182266   1.0
H7   H   0.507299191268267   0.557295408835905   0.329411249070006   1.0
H8   H   0.663193263455504   0.462261295900390   0.552707037979204   1.0
H9   H   0.740490137933548   0.996018825434327   0.531126437457758   1.0
H10   H   0.587879150208394   0.055685421809962   0.671007118191554   1.0
H11   H   0.781777313425188   0.976561613155901   0.732153450070030   1.0
H12   H   0.375345488149243   0.271369227839095   0.386398793291484   1.0
H13   H   0.344251591238006   0.602747029751868   0.437607075148094   1.0
I14   I   0.079666490191911   0.798527424507036   0.446572527871268   1.0
I15   I   0.165504745812548   0.141141633495941   0.980607371220501   1.0
I16   I   0.628841814919021   0.973053119335368   0.165247428654347   1.0
N17   N   0.442234039655567   0.499616275764844   0.423253119446855   1.0
Pb18   Pb   0.916253602900809   0.568198394838092   0.085484967307501   1.0




# HOIP entry ID:                    1262
# Khazana ID:                       3112
# Organic cation source:            C.C.Stoumpos et al., J. Am. Chem. Soc. 137, 6804 (2015)
# Label:                            Isopropylammonium Lead Iodide
# Material class:                   Hybrid organic-inorganic perovskite ( MC_ino )
# Geometry class:                   Bulk crystalline materials ( GC_cry )
# Organic cation chemical formula:  (CH3)2CHNH3
# Number of atom types:             5
# Total number of atoms:            18
# Atom types:                       C H N  Pb I
# Number of each atom:              3 10 1  1 3
# Bandgap, HSE06 (eV):              3.4157
# Bandgap, GGA (eV):                2.512
# Kpoint for VBM:                   0.4, 0, 0
# Kpoint for CBM:                   0.4, 0, 0
# Dielectric constant, electronic:  3.9628
# Dielectric constant, ionic:       6.5441
# Dielectric constant, total:       10.5069
# Refractive index:                 1.9907
# Atomization energy (eV/atom):     -4.3179
# Relative energy1 (eV/atom):       0.1452
# Relative energy2 (eV/atom):       0.2701
# Volume of the unit cell (A^3):    302.65
# Density (g/cm^3):                 3.5556
# Tool:                             VASP
# Pseudopotential:                  PAW
# Note:                             ENCUT=400eV, k-spacing_relax=0.20/Angstrom, k-spacing_bandgap=0.15/Angstrom
# Created by:                       C.Kim, T.D.Huan, S.Krishnan, R. Ramprasad