data_1
_audit_creation_method   'Generated by vasp2cif'
_cell_length_a    9.12568613115
_cell_length_b    4.86631379168
_cell_length_c    8.14647881299
_cell_angle_alpha    72.0081988247
_cell_angle_beta    72.3250143302
_cell_angle_gamma    62.0336844557

_symmetry_space_group_name_H-M    'P 1'
loop_
_atom_site_label
_atom_site_type_symbol
_atom_site_fract_x
_atom_site_fract_y
_atom_site_fract_z
_atom_site_occupancy
C1   C   0.632841367225428   0.282194845386961   0.308428313010795   1.0
C2   C   0.596511944778166   0.991339587427342   0.406940987304923   1.0
C3   C   0.739473246543017   0.734548150498404   0.500701663343224   1.0
H4   H   0.854267498309520   0.643632542684672   0.404038352879838   1.0
H5   H   0.710330554463775   0.534352023562180   0.581100764232932   1.0
H6   H   0.767505139039692   0.831916531868577   0.585976058543987   1.0
H7   H   0.333341909372514   0.276901608132895   0.493948742648938   1.0
H8   H   0.568708046506529   0.902204685954104   0.317405060131208   1.0
H9   H   0.662902420923707   0.367716099176477   0.397677659476664   1.0
H10   H   0.743079483940673   0.214334637698929   0.203053875685493   1.0
H11   H   0.527663185444250   0.473154718304784   0.248388987892894   1.0
H12   H   0.397760994429577   0.901424298701924   0.604677118720525   1.0
H13   H   0.450223484982034   0.153519763165282   0.647291848167474   1.0
I14   I   0.500425781289915   0.293616657255535   0.902201335867998   1.0
I15   I   0.007747381490052   0.290848314213558   0.845322169752752   1.0
I16   I   0.151947416278145   0.902645533371224   0.380458700240664   1.0
N17   N   0.433323312759668   0.087130474539095   0.546642139772765   1.0
Pb18   Pb   0.124846832223364   0.557839528058037   0.076516222326888   1.0




# HOIP entry ID:                    1263
# Khazana ID:                       3113
# Organic cation source:            C.C.Stoumpos et al., J. Am. Chem. Soc. 137, 6804 (2015)
# Label:                            Isopropylammonium Lead Iodide
# Material class:                   Hybrid organic-inorganic perovskite ( MC_ino )
# Geometry class:                   Bulk crystalline materials ( GC_cry )
# Organic cation chemical formula:  (CH3)2CHNH3
# Number of atom types:             5
# Total number of atoms:            18
# Atom types:                       C H N  Pb I
# Number of each atom:              3 10 1  1 3
# Bandgap, HSE06 (eV):              3.2493
# Bandgap, GGA (eV):                2.423
# Kpoint for VBM:                   0.25, 0.3, 0.1
# Kpoint for CBM:                   0, 0, 0.5
# Dielectric constant, electronic:  4.0338
# Dielectric constant, ionic:       6.0042
# Dielectric constant, total:       10.038
# Refractive index:                 2.0084
# Atomization energy (eV/atom):     -4.3188
# Relative energy1 (eV/atom):       0.1442
# Relative energy2 (eV/atom):       0.2691
# Volume of the unit cell (A^3):    298.42
# Density (g/cm^3):                 3.606
# Tool:                             VASP
# Pseudopotential:                  PAW
# Note:                             ENCUT=400eV, k-spacing_relax=0.20/Angstrom, k-spacing_bandgap=0.15/Angstrom
# Created by:                       C.Kim, T.D.Huan, S.Krishnan, R. Ramprasad