data_1
_audit_creation_method   'Generated by vasp2cif'
_cell_length_a    8.71398853243
_cell_length_b    4.90026903202
_cell_length_c    7.95357896975
_cell_angle_alpha    107.946963296
_cell_angle_beta    79.0523904295
_cell_angle_gamma    108.84837877

_symmetry_space_group_name_H-M    'P 1'
loop_
_atom_site_label
_atom_site_type_symbol
_atom_site_fract_x
_atom_site_fract_y
_atom_site_fract_z
_atom_site_occupancy
C1   C   0.656022408820478   0.349032359933103   0.352141387040100   1.0
C2   C   0.601088779824486   0.109765322036247   0.454606238118724   1.0
C3   C   0.729468922244770   0.139550709170726   0.570685934794275   1.0
H4   H   0.841940451681586   0.116023462379205   0.487417526813483   1.0
H5   H   0.690055879829477   0.972090985437123   0.645613228542357   1.0
H6   H   0.758255113119909   0.361053341365279   0.665658530383071   1.0
H7   H   0.351932742149452   0.126229279055838   0.505383088255703   1.0
H8   H   0.567565798339169   0.887385951831827   0.361961219941414   1.0
H9   H   0.702401064703657   0.570257526487912   0.441381470338122   1.0
H10   H   0.755396625723209   0.299740258714393   0.251532492244550   1.0
H11   H   0.558885934203478   0.348784761413042   0.283118774707451   1.0
H12   H   0.398613744479228   0.959897479478852   0.635982189535685   1.0
H13   H   0.460453090410904   0.330470470368499   0.676808712276833   1.0
I14   I   0.464575140679296   0.792151288686314   0.942446847128222   1.0
I15   I   0.002034851702410   0.985932597225856   0.831555706362520   1.0
I16   I   0.186007325108085   0.371948769500883   0.375080418622939   1.0
N17   N   0.442466153043645   0.132258713424343   0.575194800103134   1.0
Pb18   Pb   0.103905973936826   0.673376723490517   0.086061434791443   1.0




# HOIP entry ID:                    1264
# Khazana ID:                       3114
# Organic cation source:            C.C.Stoumpos et al., J. Am. Chem. Soc. 137, 6804 (2015)
# Label:                            Isopropylammonium Lead Iodide
# Material class:                   Hybrid organic-inorganic perovskite ( MC_ino )
# Geometry class:                   Bulk crystalline materials ( GC_cry )
# Organic cation chemical formula:  (CH3)2CHNH3
# Number of atom types:             5
# Total number of atoms:            18
# Atom types:                       C H N  Pb I
# Number of each atom:              3 10 1  1 3
# Bandgap, HSE06 (eV):              3.3862
# Bandgap, GGA (eV):                2.5203
# Kpoint for VBM:                   0.125, -0.2222, 0.0833
# Kpoint for CBM:                   -0.125, 0, 0.4167
# Dielectric constant, electronic:  3.94
# Dielectric constant, ionic:       6.238
# Dielectric constant, total:       10.178
# Refractive index:                 1.9849
# Atomization energy (eV/atom):     -4.3186
# Relative energy1 (eV/atom):       0.1445
# Relative energy2 (eV/atom):       0.2694
# Volume of the unit cell (A^3):    304.23
# Density (g/cm^3):                 3.5372
# Tool:                             VASP
# Pseudopotential:                  PAW
# Note:                             ENCUT=400eV, k-spacing_relax=0.20/Angstrom, k-spacing_bandgap=0.15/Angstrom
# Created by:                       C.Kim, T.D.Huan, S.Krishnan, R. Ramprasad