data_1
_audit_creation_method   'Generated by vasp2cif'
_cell_length_a    7.96389977012
_cell_length_b    4.73444620477
_cell_length_c    8.37795563605
_cell_angle_alpha    75.675356168
_cell_angle_beta    78.6347081138
_cell_angle_gamma    88.0073698757

_symmetry_space_group_name_H-M    'P 1'
loop_
_atom_site_label
_atom_site_type_symbol
_atom_site_fract_x
_atom_site_fract_y
_atom_site_fract_z
_atom_site_occupancy
C1   C   0.567392441231359   0.996919025463688   0.314524721728777   1.0
C2   C   0.554052034523776   0.996528502574819   0.499001613961444   1.0
C3   C   0.683034975575180   0.205892265569449   0.522573173978256   1.0
H4   H   0.811814246222424   0.125332116844843   0.487604943318834   1.0
H5   H   0.667016831860996   0.219797380668140   0.652798753270600   1.0
H6   H   0.673999320608351   0.424133050554314   0.441702505613925   1.0
H7   H   0.361612110636925   0.090032726281981   0.696341519636081   1.0
H8   H   0.569710793004822   0.777793279628883   0.575442284529912   1.0
H9   H   0.471135102200038   0.856919230300257   0.294561183356528   1.0
H10   H   0.553656546366284   0.217702206133560   0.238516760602156   1.0
H11   H   0.693943911695003   0.919018217679785   0.267155149527097   1.0
H12   H   0.333808320459453   0.277746615952719   0.506304570587206   1.0
H13   H   0.281615471048855   0.926886578327692   0.570217556099472   1.0
I14   I   0.411596866484899   0.426507798773868   0.920415853977559   1.0
I15   I   0.917913071398027   0.913986671203780   0.885280079769352   1.0
I16   I   0.093644075765243   0.668182465488325   0.404841130969137   1.0
N17   N   0.371227258763514   0.078293674336850   0.572982376673544   1.0
Pb18   Pb   0.043486622154884   0.319348194217107   0.107165822400065   1.0




# HOIP entry ID:                    1265
# Khazana ID:                       3115
# Organic cation source:            C.C.Stoumpos et al., J. Am. Chem. Soc. 137, 6804 (2015)
# Label:                            Isopropylammonium Lead Iodide
# Material class:                   Hybrid organic-inorganic perovskite ( MC_ino )
# Geometry class:                   Bulk crystalline materials ( GC_cry )
# Organic cation chemical formula:  (CH3)2CHNH3
# Number of atom types:             5
# Total number of atoms:            18
# Atom types:                       C H N  Pb I
# Number of each atom:              3 10 1  1 3
# Bandgap, HSE06 (eV):              3.5672
# Bandgap, GGA (eV):                2.6818
# Kpoint for VBM:                   0, 0.0625, 0.4
# Kpoint for CBM:                   0.1, 0, 0.5
# Dielectric constant, electronic:  3.9315
# Dielectric constant, ionic:       4.2256
# Dielectric constant, total:       8.1571
# Refractive index:                 1.9828
# Atomization energy (eV/atom):     -4.3182
# Relative energy1 (eV/atom):       0.1448
# Relative energy2 (eV/atom):       0.2698
# Volume of the unit cell (A^3):    300.03
# Density (g/cm^3):                 3.5867
# Tool:                             VASP
# Pseudopotential:                  PAW
# Note:                             ENCUT=400eV, k-spacing_relax=0.20/Angstrom, k-spacing_bandgap=0.15/Angstrom
# Created by:                       C.Kim, T.D.Huan, S.Krishnan, R. Ramprasad