data_1
_audit_creation_method   'Generated by vasp2cif'
_cell_length_a    6.84051571002
_cell_length_b    4.65925218697
_cell_length_c    9.38620997335
_cell_angle_alpha    85.4452165601
_cell_angle_beta    85.881688548
_cell_angle_gamma    96.0837511965

_symmetry_space_group_name_H-M    'P 1'
loop_
_atom_site_label
_atom_site_type_symbol
_atom_site_fract_x
_atom_site_fract_y
_atom_site_fract_z
_atom_site_occupancy
C1   C   0.489231495193089   0.576518864475283   0.645753700520224   1.0
C2   C   0.438973970221511   0.434339976937899   0.510471436813184   1.0
C3   C   0.314987737720301   0.610437720864972   0.415751531729164   1.0
H4   H   0.182971146532402   0.651970014536175   0.480016024284190   1.0
H5   H   0.270010913795389   0.497705758212973   0.323937085647557   1.0
H6   H   0.395988536157702   0.820063979629573   0.374567340998617   1.0
H7   H   0.605105414352238   0.293014656732922   0.330766924244841   1.0
H8   H   0.364460881336946   0.215530504460851   0.538268014467960   1.0
H9   H   0.579748353694526   0.448446277668822   0.711188152536479   1.0
H10   H   0.568070541337832   0.793769769389407   0.620145831781684   1.0
H11   H   0.352695536463955   0.596822245747568   0.710140833943157   1.0
H12   H   0.715005856844435   0.588511536491851   0.389544446330625   1.0
H13   H   0.720223886055841   0.270190091964473   0.483558265412206   1.0
I14   I   0.496731157333343   0.375184966303344   0.040151702852107   1.0
I15   I   0.963462653976961   0.982589269520155   0.233089202358109   1.0
I16   I   0.964640322194178   0.065778237216051   0.717496645065154   1.0
N17   N   0.632000515945563   0.391506460714744   0.423791385141172   1.0
Pb18   Pb   0.947771080843758   0.517749669132733   0.975851475873398   1.0




# HOIP entry ID:                    1266
# Khazana ID:                       3116
# Organic cation source:            C.C.Stoumpos et al., J. Am. Chem. Soc. 137, 6804 (2015)
# Label:                            Isopropylammonium Lead Iodide
# Material class:                   Hybrid organic-inorganic perovskite ( MC_ino )
# Geometry class:                   Bulk crystalline materials ( GC_cry )
# Organic cation chemical formula:  (CH3)2CHNH3
# Number of atom types:             5
# Total number of atoms:            18
# Atom types:                       C H N  Pb I
# Number of each atom:              3 10 1  1 3
# Bandgap, HSE06 (eV):              3.3949
# Bandgap, GGA (eV):                2.454
# Kpoint for VBM:                   -0.0833, 0, 0.375
# Kpoint for CBM:                   0.5, 0.5, 0
# Dielectric constant, electronic:  4.1673
# Dielectric constant, ionic:       6.1385
# Dielectric constant, total:       10.3058
# Refractive index:                 2.0414
# Atomization energy (eV/atom):     -4.316
# Relative energy1 (eV/atom):       0.147
# Relative energy2 (eV/atom):       0.2719
# Volume of the unit cell (A^3):    295.56
# Density (g/cm^3):                 3.6409
# Tool:                             VASP
# Pseudopotential:                  PAW
# Note:                             ENCUT=400eV, k-spacing_relax=0.20/Angstrom, k-spacing_bandgap=0.15/Angstrom
# Created by:                       C.Kim, T.D.Huan, S.Krishnan, R. Ramprasad