data_1
_audit_creation_method   'Generated by vasp2cif'
_cell_length_a    6.79233403614
_cell_length_b    6.47037665283
_cell_length_c    6.46452938437
_cell_angle_alpha    88.237421472
_cell_angle_beta    93.8520589438
_cell_angle_gamma    95.0205669508

_symmetry_space_group_name_H-M    'P 1'
loop_
_atom_site_label
_atom_site_type_symbol
_atom_site_fract_x
_atom_site_fract_y
_atom_site_fract_z
_atom_site_occupancy
I1   I   0.474758502476908   0.883050983030185   0.986991210717529   1.0
I2   I   0.942656046449836   0.939626019944618   0.490270457228893   1.0
I3   I   0.932058677650329   0.428376322286916   0.982168258713765   1.0
H4   H   0.497457766748078   0.639802517739760   0.351783929589555   1.0
H5   H   0.775206079685746   0.430864511369309   0.437504849451923   1.0
H6   H   0.560219059400040   0.638800040640598   0.603623319390243   1.0
H7   H   0.223821546387382   0.376416112626609   0.402245225125369   1.0
H8   H   0.294004453816835   0.377974406081290   0.674612977549989   1.0
H9   H   0.204206872831093   0.603976903041708   0.547468060667448   1.0
H10   H   0.563397880450353   0.281961234380429   0.323449709925601   1.0
H11   H   0.617935860665487   0.270057837730765   0.599139146766962   1.0
C12   C   0.288063198769280   0.470315817653903   0.530937669322405   1.0
C13   C   0.624158035655414   0.367751210486847   0.459186511128436   1.0
Pb14   Pb   0.007016253456883   0.921574510783781   0.989117954583455   1.0
N15   N   0.497943665659245   0.545939359010783   0.484993652028517   1.0




# HOIP entry ID:                    1267
# Khazana ID:                       3117
# Organic cation source:            B.Saparov et al., Chem. Rev. 116, 4558 (2016)
# Label:                            Dimethylammonium Lead Iodide
# Material class:                   Hybrid organic-inorganic perovskite ( MC_ino )
# Geometry class:                   Bulk crystalline materials ( GC_cry )
# Organic cation chemical formula:  (CH3)2NH2
# Number of atom types:             5
# Total number of atoms:            15
# Atom types:                       C H N  Pb I
# Number of each atom:              2 8 1  1 3
# Bandgap, HSE06 (eV):              2.5684
# Bandgap, GGA (eV):                1.7971
# Kpoint for VBM:                   0.5, 0.5, 0.5
# Kpoint for CBM:                   0.5, 0.5, 0.4211
# Dielectric constant, electronic:  4.9945
# Dielectric constant, ionic:       15.3141
# Dielectric constant, total:       20.3085
# Refractive index:                 2.2348
# Atomization energy (eV/atom):     -4.1484
# Relative energy1 (eV/atom):       0.2278
# Relative energy2 (eV/atom):       0.3777
# Volume of the unit cell (A^3):    282.29
# Density (g/cm^3):                 3.7296
# Tool:                             VASP
# Pseudopotential:                  PAW
# Note:                             ENCUT=400eV, k-spacing_relax=0.20/Angstrom, k-spacing_bandgap=0.15/Angstrom
# Created by:                       C.Kim, T.D.Huan, S.Krishnan, R. Ramprasad