data_1
_audit_creation_method   'Generated by vasp2cif'
_cell_length_a    6.59322772213
_cell_length_b    6.58048331369
_cell_length_c    6.57634016614
_cell_angle_alpha    86.2179995695
_cell_angle_beta    98.4337273182
_cell_angle_gamma    96.6306238533

_symmetry_space_group_name_H-M    'P 1'
loop_
_atom_site_label
_atom_site_type_symbol
_atom_site_fract_x
_atom_site_fract_y
_atom_site_fract_z
_atom_site_occupancy
I1   I   0.444749094154852   0.965588007346163   0.941912686828664   1.0
I2   I   0.895989120310380   0.928289867526344   0.495445621256246   1.0
I3   I   0.987368964368986   0.461136866268098   0.008833320188185   1.0
H4   H   0.350002000951002   0.566508669074312   0.278698299978113   1.0
H5   H   0.661137408766185   0.402237978912972   0.285005189766919   1.0
H6   H   0.540206631962162   0.672251438990891   0.447483246645934   1.0
H7   H   0.190201995357241   0.368124635465722   0.543728185667887   1.0
H8   H   0.395412347345922   0.470951449252019   0.730663797626041   1.0
H9   H   0.220099282368870   0.636007015980885   0.590482865380173   1.0
H10   H   0.457509710966283   0.227998022870879   0.369698046231610   1.0
H11   H   0.658325195718719   0.341924490827070   0.554391143086451   1.0
C12   C   0.299851955238282   0.501259961204069   0.584480548321067   1.0
C13   C   0.564178128846954   0.364236480758826   0.405669575640341   1.0
Pb14   Pb   0.926024119605081   0.974594475429598   0.006712694309372   1.0
N15   N   0.439337334576750   0.540680447681557   0.419325672668598   1.0




# HOIP entry ID:                    1268
# Khazana ID:                       3118
# Organic cation source:            B.Saparov et al., Chem. Rev. 116, 4558 (2016)
# Label:                            Dimethylammonium Lead Iodide
# Material class:                   Hybrid organic-inorganic perovskite ( MC_ino )
# Geometry class:                   Bulk crystalline materials ( GC_cry )
# Organic cation chemical formula:  (CH3)2NH2
# Number of atom types:             5
# Total number of atoms:            15
# Atom types:                       C H N  Pb I
# Number of each atom:              2 8 1  1 3
# Bandgap, HSE06 (eV):              2.5721
# Bandgap, GGA (eV):                1.7793
# Kpoint for VBM:                   0.4737, 0.4737, 0.4737
# Kpoint for CBM:                   0.5, 0.5, 0.5
# Dielectric constant, electronic:  4.9804
# Dielectric constant, ionic:       13.9639
# Dielectric constant, total:       18.9444
# Refractive index:                 2.2317
# Atomization energy (eV/atom):     -4.1513
# Relative energy1 (eV/atom):       0.2249
# Relative energy2 (eV/atom):       0.3748
# Volume of the unit cell (A^3):    280
# Density (g/cm^3):                 3.7601
# Tool:                             VASP
# Pseudopotential:                  PAW
# Note:                             ENCUT=400eV, k-spacing_relax=0.20/Angstrom, k-spacing_bandgap=0.15/Angstrom
# Created by:                       C.Kim, T.D.Huan, S.Krishnan, R. Ramprasad