data_1
_audit_creation_method   'Generated by vasp2cif'
_cell_length_a    6.5883595856
_cell_length_b    6.59638538046
_cell_length_c    6.56667852538
_cell_angle_alpha    82.7153629725
_cell_angle_beta    97.9715112209
_cell_angle_gamma    94.6300587467

_symmetry_space_group_name_H-M    'P 1'
loop_
_atom_site_label
_atom_site_type_symbol
_atom_site_fract_x
_atom_site_fract_y
_atom_site_fract_z
_atom_site_occupancy
I1   I   0.441741233389919   0.911194515259524   0.025448524688486   1.0
I2   I   0.986592359992343   0.967323258790792   0.485570052696055   1.0
I3   I   0.923977994615854   0.452430388636799   0.937506497406844   1.0
H4   H   0.522431570219197   0.653656361136711   0.381970210857915   1.0
H5   H   0.665136999053246   0.354858627995590   0.288855556913177   1.0
H6   H   0.656960099522372   0.527788366947256   0.587340519787602   1.0
H7   H   0.201258884382064   0.492953657766854   0.492365299899831   1.0
H8   H   0.351132255576672   0.367127356244723   0.713879539839205   1.0
H9   H   0.345010282277706   0.640662209223336   0.680937735586987   1.0
H10   H   0.390166817500898   0.343437421263168   0.244957232492347   1.0
H11   H   0.519162983178788   0.199537429236372   0.468354938131469   1.0
C12   C   0.340486154256908   0.504414642573131   0.602395481599316   1.0
C13   C   0.525125089960866   0.339981999911629   0.361655633287569   1.0
Pb14   Pb   0.928278059722970   0.966568904300978   0.002557745884197   1.0
N15   N   0.523339376160017   0.519565374752361   0.483576893385326   1.0




# HOIP entry ID:                    1269
# Khazana ID:                       3119
# Organic cation source:            B.Saparov et al., Chem. Rev. 116, 4558 (2016)
# Label:                            Dimethylammonium Lead Iodide
# Material class:                   Hybrid organic-inorganic perovskite ( MC_ino )
# Geometry class:                   Bulk crystalline materials ( GC_cry )
# Organic cation chemical formula:  (CH3)2NH2
# Number of atom types:             5
# Total number of atoms:            15
# Atom types:                       C H N  Pb I
# Number of each atom:              2 8 1  1 3
# Bandgap, HSE06 (eV):              2.5546
# Bandgap, GGA (eV):                1.805
# Kpoint for VBM:                   0.5, 0.5, 0.5
# Kpoint for CBM:                   0.5, 0.5, 0.4211
# Dielectric constant, electronic:  4.9835
# Dielectric constant, ionic:       13.3403
# Dielectric constant, total:       18.3238
# Refractive index:                 2.2324
# Atomization energy (eV/atom):     -4.1512
# Relative energy1 (eV/atom):       0.225
# Relative energy2 (eV/atom):       0.3749
# Volume of the unit cell (A^3):    279.77
# Density (g/cm^3):                 3.7632
# Tool:                             VASP
# Pseudopotential:                  PAW
# Note:                             ENCUT=400eV, k-spacing_relax=0.20/Angstrom, k-spacing_bandgap=0.15/Angstrom
# Created by:                       C.Kim, T.D.Huan, S.Krishnan, R. Ramprasad