data_1
_audit_creation_method   'Generated by vasp2cif'
_cell_length_a    6.61174435797
_cell_length_b    6.57054458469
_cell_length_c    6.54948351705
_cell_angle_alpha    88.0783017485
_cell_angle_beta    85.7861411209
_cell_angle_gamma    80.5221481624

_symmetry_space_group_name_H-M    'P 1'
loop_
_atom_site_label
_atom_site_type_symbol
_atom_site_fract_x
_atom_site_fract_y
_atom_site_fract_z
_atom_site_occupancy
I1   I   0.076251997171759   0.956068638940501   0.493390519907734   1.0
I2   I   0.539632296304369   0.028055840879254   0.001352685525887   1.0
I3   I   0.984734241374071   0.469083498822592   0.018208181293843   1.0
H4   H   0.415621016818271   0.667668475408327   0.353766223074878   1.0
H5   H   0.290258344672509   0.343973868220814   0.355994560362028   1.0
H6   H   0.600375052051099   0.486039756899068   0.256469286937090   1.0
H7   H   0.567174049664438   0.644703757928518   0.679599252283289   1.0
H8   H   0.765888155045886   0.448221028652334   0.576681485443238   1.0
H9   H   0.741668884104875   0.706213939887412   0.473821053535637   1.0
H10   H   0.300652852592293   0.431936281379528   0.610465621321893   1.0
H11   H   0.496657962540439   0.232867704619153   0.508246694434320   1.0
C12   C   0.659017647848586   0.587775457151395   0.541973143366803   1.0
C13   C   0.390441356378645   0.372520571020303   0.472482695082356   1.0
Pb14   Pb   0.020772165183111   0.963635686973312   0.981960335588596   1.0
N15   N   0.515123978249669   0.534755493217460   0.390128261842470   1.0




# HOIP entry ID:                    1270
# Khazana ID:                       3120
# Organic cation source:            B.Saparov et al., Chem. Rev. 116, 4558 (2016)
# Label:                            Dimethylammonium Lead Iodide
# Material class:                   Hybrid organic-inorganic perovskite ( MC_ino )
# Geometry class:                   Bulk crystalline materials ( GC_cry )
# Organic cation chemical formula:  (CH3)2NH2
# Number of atom types:             5
# Total number of atoms:            15
# Atom types:                       C H N  Pb I
# Number of each atom:              2 8 1  1 3
# Bandgap, HSE06 (eV):              2.519
# Bandgap, GGA (eV):                1.607
# Kpoint for VBM:                   0.3947, 0.3947, 0
# Kpoint for CBM:                   0.5, 0.5, 0.5
# Dielectric constant, electronic:  5.0244
# Dielectric constant, ionic:       24.4598
# Dielectric constant, total:       29.4842
# Refractive index:                 2.2415
# Atomization energy (eV/atom):     -4.1507
# Relative energy1 (eV/atom):       0.2255
# Relative energy2 (eV/atom):       0.3754
# Volume of the unit cell (A^3):    279.82
# Density (g/cm^3):                 3.7625
# Tool:                             VASP
# Pseudopotential:                  PAW
# Note:                             ENCUT=400eV, k-spacing_relax=0.20/Angstrom, k-spacing_bandgap=0.15/Angstrom
# Created by:                       C.Kim, T.D.Huan, S.Krishnan, R. Ramprasad