data_1
_audit_creation_method   'Generated by vasp2cif'
_cell_length_a    6.56960246026
_cell_length_b    4.66927389918
_cell_length_c    9.0041853481
_cell_angle_alpha    87.8199897035
_cell_angle_beta    83.8201834111
_cell_angle_gamma    82.9464318315

_symmetry_space_group_name_H-M    'P 1'
loop_
_atom_site_label
_atom_site_type_symbol
_atom_site_fract_x
_atom_site_fract_y
_atom_site_fract_z
_atom_site_occupancy
I1   I   0.967024560792951   0.120284387066210   0.785056676601046   1.0
I2   I   0.453811394226373   0.738676727806109   0.059673332494045   1.0
I3   I   0.898915747370576   0.089343608136065   0.321394618592130   1.0
H4   H   0.321444526554881   0.277713399258836   0.541446472963348   1.0
H5   H   0.626018877662004   0.483539231528822   0.427721935343841   1.0
H6   H   0.490639242159676   0.798098555089988   0.402091885197609   1.0
H7   H   0.549412156905780   0.495877900582595   0.696191348850343   1.0
H8   H   0.670068423208440   0.802216231568140   0.624257241517175   1.0
H9   H   0.396315259051238   0.835794580619655   0.676416350248018   1.0
H10   H   0.303584567465362   0.405831571455992   0.351527872066401   1.0
H11   H   0.172817504893706   0.612990825442969   0.504209377648371   1.0
C12   C   0.530932054935934   0.695458202488462   0.629521120354891   1.0
C13   C   0.309028739676592   0.466239967061422   0.466444833286119   1.0
Pb14   Pb   0.941672579907607   0.600557929573284   0.041039026070672   1.0
N15   N   0.497724365188929   0.618576882321328   0.472757908766017   1.0




# HOIP entry ID:                    1271
# Khazana ID:                       3121
# Organic cation source:            B.Saparov et al., Chem. Rev. 116, 4558 (2016)
# Label:                            Dimethylammonium Lead Iodide
# Material class:                   Hybrid organic-inorganic perovskite ( MC_ino )
# Geometry class:                   Bulk crystalline materials ( GC_cry )
# Organic cation chemical formula:  (CH3)2NH2
# Number of atom types:             5
# Total number of atoms:            15
# Atom types:                       C H N  Pb I
# Number of each atom:              2 8 1  1 3
# Bandgap, HSE06 (eV):              3.1454
# Bandgap, GGA (eV):                2.2787
# Kpoint for VBM:                   0.0833, 0, 0.375
# Kpoint for CBM:                   0.5, 0.0556, 0
# Dielectric constant, electronic:  4.5026
# Dielectric constant, ionic:       7.798
# Dielectric constant, total:       12.3006
# Refractive index:                 2.1219
# Atomization energy (eV/atom):     -4.1495
# Relative energy1 (eV/atom):       0.2267
# Relative energy2 (eV/atom):       0.3766
# Volume of the unit cell (A^3):    272.44
# Density (g/cm^3):                 3.8644
# Tool:                             VASP
# Pseudopotential:                  PAW
# Note:                             ENCUT=400eV, k-spacing_relax=0.20/Angstrom, k-spacing_bandgap=0.15/Angstrom
# Created by:                       C.Kim, T.D.Huan, S.Krishnan, R. Ramprasad