data_1
_audit_creation_method   'Generated by vasp2cif'
_cell_length_a    8.38707766764
_cell_length_b    4.77148329735
_cell_length_c    7.45312626299
_cell_angle_alpha    101.35393972
_cell_angle_beta    95.4420243299
_cell_angle_gamma    104.944932713

_symmetry_space_group_name_H-M    'P 1'
loop_
_atom_site_label
_atom_site_type_symbol
_atom_site_fract_x
_atom_site_fract_y
_atom_site_fract_z
_atom_site_occupancy
I1   I   0.252031789515534   0.107098241101291   0.953152957866322   1.0
I2   I   0.946784977756579   0.378190738425246   0.442013874186806   1.0
I3   I   0.675964296235769   0.807613773582418   0.866217962879304   1.0
H4   H   0.406524258577249   0.616893589852026   0.335110946303303   1.0
H5   H   0.539921719328213   0.014032157282230   0.614990613202288   1.0
H6   H   0.602899590706272   0.247564700548814   0.483074147310788   1.0
H7   H   0.249652112521737   0.935180626883934   0.507315215666630   1.0
H8   H   0.351847033261848   0.324147062430633   0.589368669282401   1.0
H9   H   0.304784181685612   0.157166759655752   0.344458293749064   1.0
H10   H   0.630926766017787   0.755781921886353   0.359150329408031   1.0
H11   H   0.499486142608326   0.871804508974229   0.203776762806150   1.0
C12   C   0.340458008566095   0.126370273178985   0.481739055251467   1.0
C13   C   0.511873207129632   0.805561796135677   0.334786586924587   1.0
Pb14   Pb   0.971160876011034   0.462868424385441   0.873454693985195   1.0
N15   N   0.508245040078201   0.062245425676949   0.488429891177603   1.0




# HOIP entry ID:                    1272
# Khazana ID:                       3122
# Organic cation source:            B.Saparov et al., Chem. Rev. 116, 4558 (2016)
# Label:                            Dimethylammonium Lead Iodide
# Material class:                   Hybrid organic-inorganic perovskite ( MC_ino )
# Geometry class:                   Bulk crystalline materials ( GC_cry )
# Organic cation chemical formula:  (CH3)2NH2
# Number of atom types:             5
# Total number of atoms:            15
# Atom types:                       C H N  Pb I
# Number of each atom:              2 8 1  1 3
# Bandgap, HSE06 (eV):              3.18
# Bandgap, GGA (eV):                2.2889
# Kpoint for VBM:                   0.5, 0.0556, 0.5
# Kpoint for CBM:                   0.5, 0.5, 0.5
# Dielectric constant, electronic:  4.2107
# Dielectric constant, ionic:       6.1116
# Dielectric constant, total:       10.3224
# Refractive index:                 2.052
# Atomization energy (eV/atom):     -4.1435
# Relative energy1 (eV/atom):       0.2326
# Relative energy2 (eV/atom):       0.3825
# Volume of the unit cell (A^3):    279.18
# Density (g/cm^3):                 3.7711
# Tool:                             VASP
# Pseudopotential:                  PAW
# Note:                             ENCUT=400eV, k-spacing_relax=0.20/Angstrom, k-spacing_bandgap=0.15/Angstrom
# Created by:                       C.Kim, T.D.Huan, S.Krishnan, R. Ramprasad