data_1
_audit_creation_method   'Generated by vasp2cif'
_cell_length_a    6.59324841203
_cell_length_b    4.75257092619
_cell_length_c    8.66059140727
_cell_angle_alpha    78.6173345076
_cell_angle_beta    87.180432428
_cell_angle_gamma    83.9816484857

_symmetry_space_group_name_H-M    'P 1'
loop_
_atom_site_label
_atom_site_type_symbol
_atom_site_fract_x
_atom_site_fract_y
_atom_site_fract_z
_atom_site_occupancy
I1   I   0.947043573552503   0.204439160740649   0.786383675804595   1.0
I2   I   0.448722613230819   0.773763163654406   0.055852260205716   1.0
I3   I   0.909907034858850   0.001132306107020   0.344688614457292   1.0
H4   H   0.330032429996851   0.150862007350069   0.550220069119271   1.0
H5   H   0.652483525033012   0.380242157514917   0.506165067407847   1.0
H6   H   0.530079126861289   0.674005078981514   0.405773151925754   1.0
H7   H   0.460462080955299   0.410351177521752   0.745006251912380   1.0
H8   H   0.566852650485334   0.741850515752551   0.670303414456771   1.0
H9   H   0.301502216285657   0.709123711437051   0.642227033047682   1.0
H10   H   0.411626907319812   0.241919300496753   0.345852896098331   1.0
H11   H   0.214102116385395   0.463339256059691   0.426498124565245   1.0
C12   C   0.455457298978355   0.599731948221913   0.650554077715740   1.0
C13   C   0.354920596440861   0.323199729045418   0.450538399067083   1.0
Pb14   Pb   0.929635510169724   0.609791630605404   0.054354677466673   1.0
N15   N   0.511396015000964   0.500300709944424   0.496693430868639   1.0




# HOIP entry ID:                    1273
# Khazana ID:                       3123
# Organic cation source:            B.Saparov et al., Chem. Rev. 116, 4558 (2016)
# Label:                            Dimethylammonium Lead Iodide
# Material class:                   Hybrid organic-inorganic perovskite ( MC_ino )
# Geometry class:                   Bulk crystalline materials ( GC_cry )
# Organic cation chemical formula:  (CH3)2NH2
# Number of atom types:             5
# Total number of atoms:            15
# Atom types:                       C H N  Pb I
# Number of each atom:              2 8 1  1 3
# Bandgap, HSE06 (eV):              3.1111
# Bandgap, GGA (eV):                2.23
# Kpoint for VBM:                   0, 0, 0.5
# Kpoint for CBM:                   0.5, 0, 0.5
# Dielectric constant, electronic:  4.697
# Dielectric constant, ionic:       9.133
# Dielectric constant, total:       13.83
# Refractive index:                 2.1672
# Atomization energy (eV/atom):     -4.1501
# Relative energy1 (eV/atom):       0.2261
# Relative energy2 (eV/atom):       0.376
# Volume of the unit cell (A^3):    264.46
# Density (g/cm^3):                 3.981
# Tool:                             VASP
# Pseudopotential:                  PAW
# Note:                             ENCUT=400eV, k-spacing_relax=0.20/Angstrom, k-spacing_bandgap=0.15/Angstrom
# Created by:                       C.Kim, T.D.Huan, S.Krishnan, R. Ramprasad