data_1
_audit_creation_method   'Generated by vasp2cif'
_cell_length_a    6.65217116795
_cell_length_b    6.60257501595
_cell_length_c    6.59359859845
_cell_angle_alpha    88.8001815263
_cell_angle_beta    97.7904993925
_cell_angle_gamma    82.9507838657

_symmetry_space_group_name_H-M    'P 1'
loop_
_atom_site_label
_atom_site_type_symbol
_atom_site_fract_x
_atom_site_fract_y
_atom_site_fract_z
_atom_site_occupancy
C1   C   0.365319904159392   0.412877132160759   0.593731261522997   1.0
C2   C   0.516062459918224   0.516243830816137   0.492937002737896   1.0
H3   H   0.691227317863984   0.500169593782068   0.256497621955525   1.0
H4   H   0.679770102567680   0.762914969219310   0.508612899585579   1.0
H5   H   0.348832930221491   0.262733313367832   0.532599468972748   1.0
H6   H   0.215995490250947   0.507173776192381   0.567831853345297   1.0
H7   H   0.414059308056949   0.396222792368441   0.759147201551549   1.0
H8   H   0.522647498604165   0.744907329278448   0.696129946042085   1.0
H9   H   0.541407704040942   0.304891770044300   0.273702116187266   1.0
I10   I   0.003610932253302   0.978628883285474   0.513834182232102   1.0
I11   I   0.004171838057559   0.489662749364086   0.023673311424865   1.0
I12   I   0.501331210299952   0.963500936869082   0.044536682903725   1.0
N13   N   0.586671796032995   0.437067712795219   0.329552511696718   1.0
N14   N   0.574588393194240   0.687585789210857   0.568058099537751   1.0
Pb15   Pb   0.019243114478222   0.005699421245581   0.999035840303868   1.0




# HOIP entry ID:                    1274
# Khazana ID:                       3124
# Organic cation source:            C.C.Stoumpos et al., J. Am. Chem. Soc. 137, 6804 (2015)
# Label:                            Acetamidinium Lead Iodide
# Material class:                   Hybrid organic-inorganic perovskite ( MC_ino )
# Geometry class:                   Bulk crystalline materials ( GC_cry )
# Organic cation chemical formula:  CH3C(NH2)2
# Number of atom types:             5
# Total number of atoms:            15
# Atom types:                       C H N  Pb I
# Number of each atom:              2 7 2  1 3
# Bandgap, HSE06 (eV):              2.4839
# Bandgap, GGA (eV):                1.6481
# Kpoint for VBM:                   0.4737, 0.5, 0.4737
# Kpoint for CBM:                   0.4737, 0.5, 0.4737
# Dielectric constant, electronic:  5.0475
# Dielectric constant, ionic:       15.5805
# Dielectric constant, total:       20.6279
# Refractive index:                 2.2467
# Atomization energy (eV/atom):     -4.4585
# Relative energy1 (eV/atom):       0.3438
# Relative energy2 (eV/atom):       0.4937
# Volume of the unit cell (A^3):    284.55
# Density (g/cm^3):                 3.7758
# Tool:                             VASP
# Pseudopotential:                  PAW
# Note:                             ENCUT=400eV, k-spacing_relax=0.20/Angstrom, k-spacing_bandgap=0.15/Angstrom
# Created by:                       C.Kim, T.D.Huan, S.Krishnan, R. Ramprasad