data_1
_audit_creation_method   'Generated by vasp2cif'
_cell_length_a    6.66501248759
_cell_length_b    6.60932222244
_cell_length_c    6.61240374519
_cell_angle_alpha    90.8061132054
_cell_angle_beta    97.7763486993
_cell_angle_gamma    97.7100616367

_symmetry_space_group_name_H-M    'P 1'
loop_
_atom_site_label
_atom_site_type_symbol
_atom_site_fract_x
_atom_site_fract_y
_atom_site_fract_z
_atom_site_occupancy
C1   C   0.637068539914296   0.508052574416325   0.525181445577054   1.0
C2   C   0.494882935395403   0.615569073289109   0.631017916322193   1.0
H3   H   0.325943934695047   0.598518331341218   0.871564485035670   1.0
H4   H   0.326711413429791   0.856863257597375   0.613315177482555   1.0
H5   H   0.746559897639187   0.444252596662380   0.635925917234978   1.0
H6   H   0.720462686653384   0.611068046982588   0.428304554891433   1.0
H7   H   0.547681425723411   0.381925030589080   0.428820953875885   1.0
H8   H   0.480626180192878   0.840528435605592   0.423833060081591   1.0
H9   H   0.479159129706673   0.408218315867487   0.855783913586571   1.0
I10   I   0.007217292016172   0.078512734893977   0.598453801664135   1.0
I11   I   0.009205617945440   0.582159494131311   0.096645971990576   1.0
I12   I   0.504036052653653   0.058356281839444   0.073490056474093   1.0
N13   N   0.431115950057766   0.538423797647866   0.798762361920737   1.0
N14   N   0.431843617538838   0.783580864079397   0.553589990802053   1.0
Pb15   Pb   0.984555326438020   0.098021165056757   0.114320393060446   1.0




# HOIP entry ID:                    1275
# Khazana ID:                       3125
# Organic cation source:            C.C.Stoumpos et al., J. Am. Chem. Soc. 137, 6804 (2015)
# Label:                            Acetamidinium Lead Iodide
# Material class:                   Hybrid organic-inorganic perovskite ( MC_ino )
# Geometry class:                   Bulk crystalline materials ( GC_cry )
# Organic cation chemical formula:  CH3C(NH2)2
# Number of atom types:             5
# Total number of atoms:            15
# Atom types:                       C H N  Pb I
# Number of each atom:              2 7 2  1 3
# Bandgap, HSE06 (eV):              2.4857
# Bandgap, GGA (eV):                1.6716
# Kpoint for VBM:                   0.4737, 0.5, 0.4737
# Kpoint for CBM:                   0.4737, 0.4737, 0.4737
# Dielectric constant, electronic:  5.0155
# Dielectric constant, ionic:       14.7511
# Dielectric constant, total:       19.7666
# Refractive index:                 2.2395
# Atomization energy (eV/atom):     -4.4585
# Relative energy1 (eV/atom):       0.3437
# Relative energy2 (eV/atom):       0.4936
# Volume of the unit cell (A^3):    285.84
# Density (g/cm^3):                 3.7588
# Tool:                             VASP
# Pseudopotential:                  PAW
# Note:                             ENCUT=400eV, k-spacing_relax=0.20/Angstrom, k-spacing_bandgap=0.15/Angstrom
# Created by:                       C.Kim, T.D.Huan, S.Krishnan, R. Ramprasad