data_1
_audit_creation_method   'Generated by vasp2cif'
_cell_length_a    6.57753696915
_cell_length_b    6.58951925989
_cell_length_c    6.62015243205
_cell_angle_alpha    85.8196415266
_cell_angle_beta    98.1089224866
_cell_angle_gamma    88.8727587367

_symmetry_space_group_name_H-M    'P 1'
loop_
_atom_site_label
_atom_site_type_symbol
_atom_site_fract_x
_atom_site_fract_y
_atom_site_fract_z
_atom_site_occupancy
C1   C   0.575344286795129   0.478162748179358   0.423674297082172   1.0
C2   C   0.516789109348593   0.626647214716556   0.567686845408822   1.0
H3   H   0.329822732230511   0.672774774814208   0.786994194966105   1.0
H4   H   0.584221481924068   0.902571497078831   0.682855897739408   1.0
H5   H   0.587426324397057   0.555846129189447   0.274358446787886   1.0
H6   H   0.463722347863289   0.358577355256671   0.405137164062701   1.0
H7   H   0.726125972276591   0.408154549061649   0.485432555218047   1.0
H8   H   0.721759679424075   0.836665404768780   0.490433683786463   1.0
H9   H   0.300348121108421   0.445664141002794   0.670804958294148   1.0
I10   I   0.080805450267924   0.094826046446805   0.562385333682265   1.0
I11   I   0.025585695109541   0.604390244007035   0.069228555734114   1.0
I12   I   0.551911715670940   0.073328683738097   0.040053198782523   1.0
N13   N   0.375118866568784   0.578616298906169   0.685507594291444   1.0
N14   N   0.610434420562839   0.802614894339527   0.577908230259773   1.0
Pb15   Pb   0.039283796452182   0.121410018494018   0.077399043904073   1.0




# HOIP entry ID:                    1276
# Khazana ID:                       3126
# Organic cation source:            C.C.Stoumpos et al., J. Am. Chem. Soc. 137, 6804 (2015)
# Label:                            Acetamidinium Lead Iodide
# Material class:                   Hybrid organic-inorganic perovskite ( MC_ino )
# Geometry class:                   Bulk crystalline materials ( GC_cry )
# Organic cation chemical formula:  CH3C(NH2)2
# Number of atom types:             5
# Total number of atoms:            15
# Atom types:                       C H N  Pb I
# Number of each atom:              2 7 2  1 3
# Bandgap, HSE06 (eV):              2.4574
# Bandgap, GGA (eV):                1.5898
# Kpoint for VBM:                   0.5, 0.5, 0.5
# Kpoint for CBM:                   0.5, 0.5, 0.5
# Dielectric constant, electronic:  5.1093
# Dielectric constant, ionic:       16.2043
# Dielectric constant, total:       21.3136
# Refractive index:                 2.2604
# Atomization energy (eV/atom):     -4.4573
# Relative energy1 (eV/atom):       0.345
# Relative energy2 (eV/atom):       0.4949
# Volume of the unit cell (A^3):    283.18
# Density (g/cm^3):                 3.7941
# Tool:                             VASP
# Pseudopotential:                  PAW
# Note:                             ENCUT=400eV, k-spacing_relax=0.20/Angstrom, k-spacing_bandgap=0.15/Angstrom
# Created by:                       C.Kim, T.D.Huan, S.Krishnan, R. Ramprasad