data_1
_audit_creation_method   'Generated by vasp2cif'
_cell_length_a    6.73479763255
_cell_length_b    4.55577923074
_cell_length_c    9.04862621756
_cell_angle_alpha    90.2281028013
_cell_angle_beta    95.2236682078
_cell_angle_gamma    101.793549948

_symmetry_space_group_name_H-M    'P 1'
loop_
_atom_site_label
_atom_site_type_symbol
_atom_site_fract_x
_atom_site_fract_y
_atom_site_fract_z
_atom_site_occupancy
C1   C   0.425100736483259   0.871198839437209   0.604482109178225   1.0
C2   C   0.540234785280753   0.818889790037395   0.476183546761789   1.0
H3   H   0.397837660713955   0.074432922613285   0.335861133733912   1.0
H4   H   0.574490166465562   0.907349286923929   0.256116949389711   1.0
H5   H   0.330698070570879   0.658557880403611   0.634833742791887   1.0
H6   H   0.531053921492890   0.956848054809947   0.701312136959019   1.0
H7   H   0.326103804372430   0.028621893611136   0.576538474050118   1.0
H8   H   0.759821392653289   0.602694706251236   0.409795695384913   1.0
H9   H   0.710290717345776   0.558153049965101   0.593152939785500   1.0
I10   I   0.554958349067181   0.543680620709739   0.010543170576849   1.0
I11   I   0.048793998662624   0.266348211426616   0.293466036647207   1.0
I12   I   0.992179404672598   0.237536070977224   0.754324914014047   1.0
N13   N   0.509051521291176   0.951961538370525   0.348988502887249   1.0
N14   N   0.672197421257318   0.637002924787600   0.491728016053631   1.0
Pb15   Pb   0.028438049670298   0.741024209675421   0.016102631785931   1.0




# HOIP entry ID:                    1277
# Khazana ID:                       3127
# Organic cation source:            C.C.Stoumpos et al., J. Am. Chem. Soc. 137, 6804 (2015)
# Label:                            Acetamidinium Lead Iodide
# Material class:                   Hybrid organic-inorganic perovskite ( MC_ino )
# Geometry class:                   Bulk crystalline materials ( GC_cry )
# Organic cation chemical formula:  CH3C(NH2)2
# Number of atom types:             5
# Total number of atoms:            15
# Atom types:                       C H N  Pb I
# Number of each atom:              2 7 2  1 3
# Bandgap, HSE06 (eV):              3.1117
# Bandgap, GGA (eV):                2.2793
# Kpoint for VBM:                   0, 0.0556, 0.5
# Kpoint for CBM:                   0.5, 0.0556, 0
# Dielectric constant, electronic:  4.4849
# Dielectric constant, ionic:       5.4035
# Dielectric constant, total:       9.8884
# Refractive index:                 2.1178
# Atomization energy (eV/atom):     -4.4606
# Relative energy1 (eV/atom):       0.3417
# Relative energy2 (eV/atom):       0.4916
# Volume of the unit cell (A^3):    270.57
# Density (g/cm^3):                 3.9709
# Tool:                             VASP
# Pseudopotential:                  PAW
# Note:                             ENCUT=400eV, k-spacing_relax=0.20/Angstrom, k-spacing_bandgap=0.15/Angstrom
# Created by:                       C.Kim, T.D.Huan, S.Krishnan, R. Ramprasad