data_1
_audit_creation_method   'Generated by vasp2cif'
_cell_length_a    6.63670659644
_cell_length_b    4.60497635093
_cell_length_c    9.63998738537
_cell_angle_alpha    108.750045475
_cell_angle_beta    81.5954820102
_cell_angle_gamma    92.2249676456

_symmetry_space_group_name_H-M    'P 1'
loop_
_atom_site_label
_atom_site_type_symbol
_atom_site_fract_x
_atom_site_fract_y
_atom_site_fract_z
_atom_site_occupancy
C1   C   0.490458577001029   0.524034707868275   0.634372080364621   1.0
C2   C   0.473906378637160   0.314641562406607   0.481882271995197   1.0
H3   H   0.344906400801690   0.255514718505019   0.293271376893713   1.0
H4   H   0.258114903150293   0.571905403315377   0.444540744122925   1.0
H5   H   0.474632114410255   0.394529203644140   0.712295702157427   1.0
H6   H   0.641659794016093   0.629087538934137   0.635826660369986   1.0
H7   H   0.374908475345322   0.705056003551967   0.670200034303150   1.0
H8   H   0.587810902864071   0.916982707776327   0.323814370021033   1.0
H9   H   0.692595737306654   0.024443246027666   0.488389207983005   1.0
I10   I   0.471645503301517   0.774495151148017   0.033445847954958   1.0
I11   I   0.939923780820550   0.446971928503139   0.220522158062700   1.0
I12   I   0.987072709158028   0.086677705132352   0.686367341388568   1.0
N13   N   0.354212394485188   0.388750175147280   0.399694417743674   1.0
N14   N   0.583305323998253   0.056635033782115   0.430567856563165   1.0
Pb15   Pb   0.954097004703854   0.776414914257593   0.963449930075789   1.0




# HOIP entry ID:                    1278
# Khazana ID:                       3128
# Organic cation source:            C.C.Stoumpos et al., J. Am. Chem. Soc. 137, 6804 (2015)
# Label:                            Acetamidinium Lead Iodide
# Material class:                   Hybrid organic-inorganic perovskite ( MC_ino )
# Geometry class:                   Bulk crystalline materials ( GC_cry )
# Organic cation chemical formula:  CH3C(NH2)2
# Number of atom types:             5
# Total number of atoms:            15
# Atom types:                       C H N  Pb I
# Number of each atom:              2 7 2  1 3
# Bandgap, HSE06 (eV):              3.1491
# Bandgap, GGA (eV):                2.2365
# Kpoint for VBM:                   0.0833, 0, 0.4
# Kpoint for CBM:                   0.5, 0.5, 0.5
# Dielectric constant, electronic:  4.5096
# Dielectric constant, ionic:       6.9212
# Dielectric constant, total:       11.4308
# Refractive index:                 2.1236
# Atomization energy (eV/atom):     -4.4587
# Relative energy1 (eV/atom):       0.3436
# Relative energy2 (eV/atom):       0.4935
# Volume of the unit cell (A^3):    275.97
# Density (g/cm^3):                 3.8932
# Tool:                             VASP
# Pseudopotential:                  PAW
# Note:                             ENCUT=400eV, k-spacing_relax=0.20/Angstrom, k-spacing_bandgap=0.15/Angstrom
# Created by:                       C.Kim, T.D.Huan, S.Krishnan, R. Ramprasad