data_1
_audit_creation_method   'Generated by vasp2cif'
_cell_length_a    8.43856761711
_cell_length_b    4.38904325784
_cell_length_c    7.58647904695
_cell_angle_alpha    90.5774159744
_cell_angle_beta    92.459377417
_cell_angle_gamma    79.5450730081

_symmetry_space_group_name_H-M    'P 1'
loop_
_atom_site_label
_atom_site_type_symbol
_atom_site_fract_x
_atom_site_fract_y
_atom_site_fract_z
_atom_site_occupancy
C1   C   0.617389358861122   0.905959567365071   0.517327435260396   1.0
C2   C   0.491321953340051   0.721109783789949   0.459287776502467   1.0
H3   H   0.372643495070117   0.785666312126922   0.689092355858372   1.0
H4   H   0.290207620755538   0.556928492584029   0.534404058212710   1.0
H5   H   0.724297424259247   0.747289759347715   0.569357076650874   1.0
H6   H   0.653564819521257   0.030346257899806   0.406185692818806   1.0
H7   H   0.574626723550042   0.068489988596175   0.622185445325457   1.0
H8   H   0.414830108583709   0.466785050692106   0.250658731902517   1.0
H9   H   0.582048373720351   0.626327030622462   0.213596843087716   1.0
I10   I   0.025488185978344   0.307319851790014   0.433777956141199   1.0
I11   I   0.293687428229614   0.194326664364910   0.954035271034112   1.0
I12   I   0.756770469407337   0.398414708347725   0.928529613893106   1.0
N13   N   0.380659989403813   0.675360252946482   0.569950048512105   1.0
N14   N   0.495844456557232   0.596846170751066   0.298774193371550   1.0
Pb15   Pb   0.017879592762204   0.815520108775527   0.094947501428530   1.0




# HOIP entry ID:                    1279
# Khazana ID:                       3129
# Organic cation source:            C.C.Stoumpos et al., J. Am. Chem. Soc. 137, 6804 (2015)
# Label:                            Acetamidinium Lead Iodide
# Material class:                   Hybrid organic-inorganic perovskite ( MC_ino )
# Geometry class:                   Bulk crystalline materials ( GC_cry )
# Organic cation chemical formula:  CH3C(NH2)2
# Number of atom types:             5
# Total number of atoms:            15
# Atom types:                       C H N  Pb I
# Number of each atom:              2 7 2  1 3
# Bandgap, HSE06 (eV):              3.2321
# Bandgap, GGA (eV):                2.3622
# Kpoint for VBM:                   0.4, 0.1111, 0
# Kpoint for CBM:                   0.2105, 0.5, 0
# Dielectric constant, electronic:  4.3429
# Dielectric constant, ionic:       13.9156
# Dielectric constant, total:       18.2584
# Refractive index:                 2.084
# Atomization energy (eV/atom):     -4.4491
# Relative energy1 (eV/atom):       0.3532
# Relative energy2 (eV/atom):       0.5031
# Volume of the unit cell (A^3):    276.06
# Density (g/cm^3):                 3.8919
# Tool:                             VASP
# Pseudopotential:                  PAW
# Note:                             ENCUT=400eV, k-spacing_relax=0.20/Angstrom, k-spacing_bandgap=0.15/Angstrom
# Created by:                       C.Kim, T.D.Huan, S.Krishnan, R. Ramprasad