data_1
_audit_creation_method   'Generated by vasp2cif'
_cell_length_a    6.54042973538
_cell_length_b    6.38570316197
_cell_length_c    6.4841099437
_cell_angle_alpha    89.9595643154
_cell_angle_beta    90.7082806322
_cell_angle_gamma    89.9299849655

_symmetry_space_group_name_H-M    'P 1'
loop_
_atom_site_label
_atom_site_type_symbol
_atom_site_fract_x
_atom_site_fract_y
_atom_site_fract_z
_atom_site_occupancy
I1   I   0.400026281876102   0.996803458459119   0.055935367368221   1.0
I2   I   0.859729883450612   0.000459792150600   0.514253090750991   1.0
I3   I   0.856040372628179   0.498818113380821   0.971548988538892   1.0
H4   H   0.555803098911348   0.500798985620854   0.292142496410797   1.0
H5   H   0.631897344735549   0.371709483305089   0.502290525364792   1.0
H6   H   0.626761873654509   0.634151096493326   0.501154494172013   1.0
H7   H   0.259029104997701   0.354119389704096   0.472117856372108   1.0
H8   H   0.336861124360581   0.498264928381609   0.697201123693162   1.0
H9   H   0.252613313386803   0.635432660325691   0.469851843891355   1.0
C10   C   0.331478617014966   0.496910457799487   0.529072468774800   1.0
Pb11   Pb   0.927078685676335   0.998883303774278   0.013114027991023   1.0
N12   N   0.549570299307263   0.501208330605095   0.451517716670892   1.0




# HOIP entry ID:                    1280
# Khazana ID:                       3130
# Organic cation source:            T.D.Huan et al., Phys. Rev. B 93,094105(2016)
# Label:                            Methylammonium Lead Iodide
# Material class:                   Hybrid organic-inorganic perovskite ( MC_ino )
# Geometry class:                   Bulk crystalline materials ( GC_cry )
# Organic cation chemical formula:  CH3NH3
# Number of atom types:             5
# Total number of atoms:            12
# Atom types:                       C H N  Pb I
# Number of each atom:              1 6 1  1 3
# Bandgap, HSE06 (eV):              2.5312
# Bandgap, GGA (eV):                1.772
# Kpoint for VBM:                   0.4737, 0.5, 0.4737
# Kpoint for CBM:                   0.4474, 0.4474, 0.4474
# Dielectric constant, electronic:  5.003
# Dielectric constant, ionic:       11.3702
# Dielectric constant, total:       16.3732
# Refractive index:                 2.2367
# Atomization energy (eV/atom):     -3.924
# Relative energy1 (eV/atom):       0.379
# Relative energy2 (eV/atom):       0.5663
# Volume of the unit cell (A^3):    270.79
# Density (g/cm^3):                 3.8019
# Tool:                             VASP
# Pseudopotential:                  PAW
# Note:                             ENCUT=400eV, k-spacing_relax=0.20/Angstrom, k-spacing_bandgap=0.15/Angstrom
# Created by:                       C.Kim, T.D.Huan, S.Krishnan, R. Ramprasad