data_1
_audit_creation_method   'Generated by vasp2cif'
_cell_length_a    6.45993847982
_cell_length_b    6.44161702371
_cell_length_c    6.52589227151
_cell_angle_alpha    87.4237652108
_cell_angle_beta    86.7983593724
_cell_angle_gamma    92.8515608187

_symmetry_space_group_name_H-M    'P 1'
loop_
_atom_site_label
_atom_site_type_symbol
_atom_site_fract_x
_atom_site_fract_y
_atom_site_fract_z
_atom_site_occupancy
I1   I   0.031144354096653   0.038969536771564   0.600291795894809   1.0
I2   I   0.490492074599572   0.977722863443155   0.125801059503973   1.0
I3   I   0.955229367261205   0.506397181354389   0.127848440799809   1.0
H4   H   0.319731082371843   0.361647968390334   0.479549391466249   1.0
H5   H   0.554590633087989   0.412156419090448   0.359338673881668   1.0
H6   H   0.390886608708457   0.601727541849433   0.379141663198935   1.0
H7   H   0.587017558425846   0.386919632705362   0.730624507029039   1.0
H8   H   0.657990006811508   0.644621605669883   0.626144107174998   1.0
H9   H   0.407351653809724   0.589630808493786   0.755133539022530   1.0
C10   C   0.530957837962503   0.527884594338286   0.658746733525203   1.0
Pb11   Pb   0.990135839914664   0.006521159915065   0.082167005784567   1.0
N12   N   0.442462982949981   0.471950687978297   0.456223082718280   1.0




# HOIP entry ID:                    1281
# Khazana ID:                       3131
# Organic cation source:            T.D.Huan et al., Phys. Rev. B 93,094105(2016)
# Label:                            Methylammonium Lead Iodide
# Material class:                   Hybrid organic-inorganic perovskite ( MC_ino )
# Geometry class:                   Bulk crystalline materials ( GC_cry )
# Organic cation chemical formula:  CH3NH3
# Number of atom types:             5
# Total number of atoms:            12
# Atom types:                       C H N  Pb I
# Number of each atom:              1 6 1  1 3
# Bandgap, HSE06 (eV):              2.4638
# Bandgap, GGA (eV):                1.7543
# Kpoint for VBM:                   0.5, 0.5, 0.5
# Kpoint for CBM:                   0.5, 0.5, 0.4474
# Dielectric constant, electronic:  5.0826
# Dielectric constant, ionic:       18.7995
# Dielectric constant, total:       23.8821
# Refractive index:                 2.2545
# Atomization energy (eV/atom):     -3.9235
# Relative energy1 (eV/atom):       0.3794
# Relative energy2 (eV/atom):       0.5668
# Volume of the unit cell (A^3):    270.49
# Density (g/cm^3):                 3.8061
# Tool:                             VASP
# Pseudopotential:                  PAW
# Note:                             ENCUT=400eV, k-spacing_relax=0.20/Angstrom, k-spacing_bandgap=0.15/Angstrom
# Created by:                       C.Kim, T.D.Huan, S.Krishnan, R. Ramprasad