data_1
_audit_creation_method   'Generated by vasp2cif'
_cell_length_a    6.68051111288
_cell_length_b    4.72566802198
_cell_length_c    8.39134898591
_cell_angle_alpha    103.219877001
_cell_angle_beta    81.896977978
_cell_angle_gamma    94.497682185

_symmetry_space_group_name_H-M    'P 1'
loop_
_atom_site_label
_atom_site_type_symbol
_atom_site_fract_x
_atom_site_fract_y
_atom_site_fract_z
_atom_site_occupancy
I1   I   0.015482522698598   0.585196818929283   0.721737408298054   1.0
I2   I   0.495924679391997   0.212414923668646   0.079573622626356   1.0
I3   I   0.967782031691570   0.810617127241763   0.294495906148263   1.0
H4   H   0.322673321701259   0.753258237641276   0.490002955697200   1.0
H5   H   0.564584654904337   0.732020119075422   0.395887733353540   1.0
H6   H   0.411743921079491   0.954459752689928   0.352534653281161   1.0
H7   H   0.553944339177725   0.007325103365680   0.682717984934712   1.0
H8   H   0.649641923066106   0.223844318282502   0.537591927041660   1.0
H9   H   0.391831112523882   0.252112232474779   0.635263255496341   1.0
C10   C   0.516372457563051   0.108059613167029   0.586820256188247   1.0
Pb11   Pb   0.988754924645377   0.196815392646229   0.011658141128741   1.0
N12   N   0.448614111556644   0.870376360817509   0.448036155805767   1.0




# HOIP entry ID:                    1282
# Khazana ID:                       3132
# Organic cation source:            T.D.Huan et al., Phys. Rev. B 93,094105(2016)
# Label:                            Methylammonium Lead Iodide
# Material class:                   Hybrid organic-inorganic perovskite ( MC_ino )
# Geometry class:                   Bulk crystalline materials ( GC_cry )
# Organic cation chemical formula:  CH3NH3
# Number of atom types:             5
# Total number of atoms:            12
# Atom types:                       C H N  Pb I
# Number of each atom:              1 6 1  1 3
# Bandgap, HSE06 (eV):              2.8537
# Bandgap, GGA (eV):                2.0398
# Kpoint for VBM:                   0.5, 0, 0.5
# Kpoint for CBM:                   0.5, 0.5, 0
# Dielectric constant, electronic:  4.7913
# Dielectric constant, ionic:       17.3252
# Dielectric constant, total:       22.1164
# Refractive index:                 2.1889
# Atomization energy (eV/atom):     -3.928
# Relative energy1 (eV/atom):       0.375
# Relative energy2 (eV/atom):       0.5623
# Volume of the unit cell (A^3):    255.03
# Density (g/cm^3):                 4.0369
# Tool:                             VASP
# Pseudopotential:                  PAW
# Note:                             ENCUT=400eV, k-spacing_relax=0.20/Angstrom, k-spacing_bandgap=0.15/Angstrom
# Created by:                       C.Kim, T.D.Huan, S.Krishnan, R. Ramprasad