data_1
_audit_creation_method   'Generated by vasp2cif'
_cell_length_a    6.8375993976
_cell_length_b    4.73443500755
_cell_length_c    8.62210855323
_cell_angle_alpha    107.193598478
_cell_angle_beta    84.9449949677
_cell_angle_gamma    75.2066919875

_symmetry_space_group_name_H-M    'P 1'
loop_
_atom_site_label
_atom_site_type_symbol
_atom_site_fract_x
_atom_site_fract_y
_atom_site_fract_z
_atom_site_occupancy
I1   I   0.948736119819635   0.782687278471577   0.270340952702071   1.0
I2   I   0.474136376749158   0.910662398355036   0.967626787278867   1.0
I3   I   0.076775599823918   0.418293177425944   0.688985047822896   1.0
H4   H   0.693527019218969   0.315255195072275   0.479098096241017   1.0
H5   H   0.537234427756104   0.620831275785633   0.635572634248398   1.0
H6   H   0.710360053940491   0.665579199002046   0.501777533267074   1.0
H7   H   0.360898776313633   0.428861690359241   0.398342978944690   1.0
H8   H   0.356057232332930   0.823755618756778   0.443416453531107   1.0
H9   H   0.537837418555519   0.529964867744518   0.274336081199238   1.0
C10   C   0.453171997841373   0.584595162735013   0.397613209688863   1.0
Pb11   Pb   0.003526498609404   0.098842313943990   0.971611603507156   1.0
N12   N   0.606118479038813   0.544801822347999   0.512278621568669   1.0




# HOIP entry ID:                    1283
# Khazana ID:                       3133
# Organic cation source:            T.D.Huan et al., Phys. Rev. B 93,094105(2016)
# Label:                            Methylammonium Lead Iodide
# Material class:                   Hybrid organic-inorganic perovskite ( MC_ino )
# Geometry class:                   Bulk crystalline materials ( GC_cry )
# Organic cation chemical formula:  CH3NH3
# Number of atom types:             5
# Total number of atoms:            12
# Atom types:                       C H N  Pb I
# Number of each atom:              1 6 1  1 3
# Bandgap, HSE06 (eV):              3.321
# Bandgap, GGA (eV):                2.4701
# Kpoint for VBM:                   0.0833, 0, 0.4167
# Kpoint for CBM:                   -0.4167, 0, 0.4167
# Dielectric constant, electronic:  4.5345
# Dielectric constant, ionic:       6.5375
# Dielectric constant, total:       11.072
# Refractive index:                 2.1294
# Atomization energy (eV/atom):     -3.9235
# Relative energy1 (eV/atom):       0.3794
# Relative energy2 (eV/atom):       0.5668
# Volume of the unit cell (A^3):    253.73
# Density (g/cm^3):                 4.0576
# Tool:                             VASP
# Pseudopotential:                  PAW
# Note:                             ENCUT=400eV, k-spacing_relax=0.20/Angstrom, k-spacing_bandgap=0.15/Angstrom
# Created by:                       C.Kim, T.D.Huan, S.Krishnan, R. Ramprasad