data_1
_audit_creation_method   'Generated by vasp2cif'
_cell_length_a    8.73394003464
_cell_length_b    4.61054397434
_cell_length_c    6.44421305727
_cell_angle_alpha    86.8794484174
_cell_angle_beta    95.7516696742
_cell_angle_gamma    91.3862015543

_symmetry_space_group_name_H-M    'P 1'
loop_
_atom_site_label
_atom_site_type_symbol
_atom_site_fract_x
_atom_site_fract_y
_atom_site_fract_z
_atom_site_occupancy
I1   I   0.205235672468362   0.731657976364218   0.070878823544362   1.0
I2   I   0.902541165560791   0.141754329774550   0.532964675938686   1.0
I3   I   0.652275841230562   0.710403444960008   0.000745606262946   1.0
H4   H   0.428677098485203   0.024170690812951   0.305415540055058   1.0
H5   H   0.592363308595338   0.114147102659942   0.453825514141599   1.0
H6   H   0.497596224716581   0.362990765251780   0.298896887949837   1.0
H7   H   0.370810790496797   0.045169728613644   0.666380353367664   1.0
H8   H   0.449138343155134   0.406545155984439   0.668653675997497   1.0
H9   H   0.275901204983995   0.328026192887947   0.504291370205884   1.0
C10   C   0.386513816481518   0.246076641608070   0.573106587550093   1.0
Pb11   Pb   0.929452441374536   0.229666052697212   0.037798812943180   1.0
N12   N   0.482334092451204   0.181751918385146   0.397612152043294   1.0




# HOIP entry ID:                    1284
# Khazana ID:                       3134
# Organic cation source:            T.D.Huan et al., Phys. Rev. B 93,094105(2016)
# Label:                            Methylammonium Lead Iodide
# Material class:                   Hybrid organic-inorganic perovskite ( MC_ino )
# Geometry class:                   Bulk crystalline materials ( GC_cry )
# Organic cation chemical formula:  CH3NH3
# Number of atom types:             5
# Total number of atoms:            12
# Atom types:                       C H N  Pb I
# Number of each atom:              1 6 1  1 3
# Bandgap, HSE06 (eV):              3.027
# Bandgap, GGA (eV):                2.2235
# Kpoint for VBM:                   0.5, 0.0556, 0
# Kpoint for CBM:                   0, 0.5, 0.5
# Dielectric constant, electronic:  4.7736
# Dielectric constant, ionic:       11.466
# Dielectric constant, total:       16.2396
# Refractive index:                 2.1849
# Atomization energy (eV/atom):     -3.9259
# Relative energy1 (eV/atom):       0.377
# Relative energy2 (eV/atom):       0.5644
# Volume of the unit cell (A^3):    257.76
# Density (g/cm^3):                 3.9941
# Tool:                             VASP
# Pseudopotential:                  PAW
# Note:                             ENCUT=400eV, k-spacing_relax=0.20/Angstrom, k-spacing_bandgap=0.15/Angstrom
# Created by:                       C.Kim, T.D.Huan, S.Krishnan, R. Ramprasad