data_1
_audit_creation_method   'Generated by vasp2cif'
_cell_length_a    8.45051944815
_cell_length_b    4.79444314513
_cell_length_c    8.07768492325
_cell_angle_alpha    53.7641506638
_cell_angle_beta    100.055054153
_cell_angle_gamma    106.840163734

_symmetry_space_group_name_H-M    'P 1'
loop_
_atom_site_label
_atom_site_type_symbol
_atom_site_fract_x
_atom_site_fract_y
_atom_site_fract_z
_atom_site_occupancy
I1   I   0.282664014729488   0.953970261155681   0.053646360310628   1.0
I2   I   0.941165353422729   0.760146735165722   0.552225846575552   1.0
I3   I   0.709097060626481   0.659401779968719   0.051112254864856   1.0
H4   H   0.615412917490421   0.518510887923274   0.551795173785212   1.0
H5   H   0.437105421202459   0.624522786106124   0.426524144108242   1.0
H6   H   0.441648504165823   0.359955453228556   0.686988781380029   1.0
H7   H   0.485748333096057   0.179051736788592   0.406258689741395   1.0
H8   H   0.498870344870483   0.898907982236869   0.682626671585411   1.0
H9   H   0.305975658754388   0.007661413033403   0.558743265239447   1.0
C10   C   0.440289233553965   0.098961795253330   0.550053783907815   1.0
Pb11   Pb   0.984975072157141   0.299173047512859   0.052471168291163   1.0
N12   N   0.487348085930614   0.424436121626980   0.554203860210270   1.0




# HOIP entry ID:                    1285
# Khazana ID:                       3135
# Organic cation source:            T.D.Huan et al., Phys. Rev. B 93,094105(2016)
# Label:                            Methylammonium Lead Iodide
# Material class:                   Hybrid organic-inorganic perovskite ( MC_ino )
# Geometry class:                   Bulk crystalline materials ( GC_cry )
# Organic cation chemical formula:  CH3NH3
# Number of atom types:             5
# Total number of atoms:            12
# Atom types:                       C H N  Pb I
# Number of each atom:              1 6 1  1 3
# Bandgap, HSE06 (eV):              2.8894
# Bandgap, GGA (eV):                2.1107
# Kpoint for VBM:                   0.5, 0, 0.5
# Kpoint for CBM:                   0, 0.5, 0
# Dielectric constant, electronic:  4.9672
# Dielectric constant, ionic:       12.6712
# Dielectric constant, total:       17.6384
# Refractive index:                 2.2287
# Atomization energy (eV/atom):     -3.9285
# Relative energy1 (eV/atom):       0.3744
# Relative energy2 (eV/atom):       0.5618
# Volume of the unit cell (A^3):    252.65
# Density (g/cm^3):                 4.0749
# Tool:                             VASP
# Pseudopotential:                  PAW
# Note:                             ENCUT=400eV, k-spacing_relax=0.20/Angstrom, k-spacing_bandgap=0.15/Angstrom
# Created by:                       C.Kim, T.D.Huan, S.Krishnan, R. Ramprasad