data_1
_audit_creation_method   'Generated by vasp2cif'
_cell_length_a    6.54006633032
_cell_length_b    6.52635800921
_cell_length_c    6.52451715619
_cell_angle_alpha    95.8614741183
_cell_angle_beta    95.2032040974
_cell_angle_gamma    95.0835808987

_symmetry_space_group_name_H-M    'P 1'
loop_
_atom_site_label
_atom_site_type_symbol
_atom_site_fract_x
_atom_site_fract_y
_atom_site_fract_z
_atom_site_occupancy
C1   C   0.299445526080767   0.290514597107581   0.336201099563972   1.0
H2   H   0.098523069688191   0.261430127431709   0.559763000062112   1.0
H3   H   0.094017518470842   0.511882402903034   0.319853874286594   1.0
H4   H   0.530608161371362   0.096837502318486   0.313011205296419   1.0
H5   H   0.528187735649240   0.280082279623755   0.138837716382973   1.0
H6   H   0.274194997915778   0.518623775973353   0.141452140281572   1.0
H7   H   0.285044000461681   0.089211049891958   0.559536677623150   1.0
I8   I   0.767003772263642   0.763075908862248   0.336468817340418   1.0
I9   I   0.771390283629920   0.290313111336488   0.806118143350346   1.0
I10   I   0.296773213002908   0.764147541565343   0.813684306863919   1.0
N11   N   0.218851684295373   0.204168905298239   0.492582678959685   1.0
N12   N   0.213800788287074   0.448441454819765   0.257535792531158   1.0
N13   N   0.463204702453503   0.216478929631449   0.256133369422706   1.0
Pb14   Pb   0.807054546429811   0.796982413236542   0.842881178034979   1.0




# HOIP entry ID:                    1286
# Khazana ID:                       3136
# Organic cation source:            B.Saparov et al., Chem. Rev. 116, 4558 (2016)
# Label:                            Guanidinium Lead Iodide
# Material class:                   Hybrid organic-inorganic perovskite ( MC_ino )
# Geometry class:                   Bulk crystalline materials ( GC_cry )
# Organic cation chemical formula:  C(NH2)3
# Number of atom types:             5
# Total number of atoms:            14
# Atom types:                       C H N  Pb I
# Number of each atom:              1 6 3  1 3
# Bandgap, HSE06 (eV):              2.4959
# Bandgap, GGA (eV):                1.7272
# Kpoint for VBM:                   0.5, 0.5, 0.5
# Kpoint for CBM:                   0.5, 0.5, 0.4211
# Dielectric constant, electronic:  5.3404
# Dielectric constant, ionic:       33.013
# Dielectric constant, total:       38.3535
# Refractive index:                 2.3109
# Atomization energy (eV/atom):     -4.4828
# Relative energy1 (eV/atom):       0.5514
# Relative energy2 (eV/atom):       0.712
# Volume of the unit cell (A^3):    274.54
# Density (g/cm^3):                 3.9194
# Tool:                             VASP
# Pseudopotential:                  PAW
# Note:                             ENCUT=400eV, k-spacing_relax=0.20/Angstrom, k-spacing_bandgap=0.15/Angstrom
# Created by:                       C.Kim, T.D.Huan, S.Krishnan, R. Ramprasad