data_1
_audit_creation_method   'Generated by vasp2cif'
_cell_length_a    6.49446576027
_cell_length_b    6.50256156478
_cell_length_c    6.51393290171
_cell_angle_alpha    87.5437029993
_cell_angle_beta    93.0727449606
_cell_angle_gamma    86.3251412331

_symmetry_space_group_name_H-M    'P 1'
loop_
_atom_site_label
_atom_site_type_symbol
_atom_site_fract_x
_atom_site_fract_y
_atom_site_fract_z
_atom_site_occupancy
C1   C   0.754792629223154   0.285197647005717   0.634514186973227   1.0
H2   H   0.858729931158194   0.167503160440504   0.368667264463063   1.0
H3   H   0.998304778410848   0.443995085428071   0.537955783385208   1.0
H4   H   0.507550542575316   0.164682009030820   0.769004376573903   1.0
H5   H   0.614865670881592   0.364785192507675   0.897963614688784   1.0
H6   H   0.880128556261063   0.540679419837154   0.750667444517127   1.0
H7   H   0.665403587673424   0.034126148224757   0.479321305174985   1.0
I8   I   0.292564729617126   0.808953376313823   0.631043844722086   1.0
I9   I   0.222449614429429   0.282305537564632   0.165690121500440   1.0
I10   I   0.748570694915983   0.740359137303010   0.114716608000279   1.0
N11   N   0.757767678652030   0.153891553304305   0.481294577218598   1.0
N12   N   0.888445243825593   0.433840478889593   0.641918700480005   1.0
N13   N   0.618500969736488   0.267161586536318   0.780835437460055   1.0
Pb14   Pb   0.249125372639824   0.787359667613693   0.128686734842276   1.0




# HOIP entry ID:                    1287
# Khazana ID:                       3137
# Organic cation source:            B.Saparov et al., Chem. Rev. 116, 4558 (2016)
# Label:                            Guanidinium Lead Iodide
# Material class:                   Hybrid organic-inorganic perovskite ( MC_ino )
# Geometry class:                   Bulk crystalline materials ( GC_cry )
# Organic cation chemical formula:  C(NH2)3
# Number of atom types:             5
# Total number of atoms:            14
# Atom types:                       C H N  Pb I
# Number of each atom:              1 6 3  1 3
# Bandgap, HSE06 (eV):              2.3586
# Bandgap, GGA (eV):                1.5862
# Kpoint for VBM:                   0.5, 0.5, 0.5
# Kpoint for CBM:                   0.5, 0.5, 0.5
# Dielectric constant, electronic:  5.3425
# Dielectric constant, ionic:       57.53
# Dielectric constant, total:       62.8726
# Refractive index:                 2.3114
# Atomization energy (eV/atom):     -4.4827
# Relative energy1 (eV/atom):       0.5515
# Relative energy2 (eV/atom):       0.7121
# Volume of the unit cell (A^3):    273.83
# Density (g/cm^3):                 3.9296
# Tool:                             VASP
# Pseudopotential:                  PAW
# Note:                             ENCUT=400eV, k-spacing_relax=0.20/Angstrom, k-spacing_bandgap=0.15/Angstrom
# Created by:                       C.Kim, T.D.Huan, S.Krishnan, R. Ramprasad