data_1
_audit_creation_method   'Generated by vasp2cif'
_cell_length_a    9.97432534923
_cell_length_b    4.48595909138
_cell_length_c    6.65502738033
_cell_angle_alpha    76.8742606355
_cell_angle_beta    96.4463382062
_cell_angle_gamma    116.650609797

_symmetry_space_group_name_H-M    'P 1'
loop_
_atom_site_label
_atom_site_type_symbol
_atom_site_fract_x
_atom_site_fract_y
_atom_site_fract_z
_atom_site_occupancy
C1   C   0.467632671962548   0.210050511214256   0.527393170129479   1.0
H2   H   0.376129595109141   0.354789995805170   0.727503669290193   1.0
H3   H   0.568227140458639   0.556933527556247   0.716998500255436   1.0
H4   H   0.597732146833138   0.124900229701673   0.348668683513090   1.0
H5   H   0.696495462422938   0.430551908078470   0.497438193961258   1.0
H6   H   0.237788194833925   0.960144115251815   0.513709507518435   1.0
H7   H   0.330773809344692   0.845096314479790   0.362227752318738   1.0
I8   I   0.968457706208383   0.979028946010459   0.554857008253578   1.0
I9   I   0.244872950429794   0.550814493028398   0.025433769073054   1.0
I10   I   0.699167948627469   0.009966720509340   0.019256735018878   1.0
N11   N   0.470113516186132   0.412890035797780   0.651059333030275   1.0
N12   N   0.336186043376024   0.974450172642555   0.472672977937066   1.0
N13   N   0.596730205294719   0.244956187748848   0.460760339918572   1.0
Pb14   Pb   0.971432608912629   0.774176842175315   0.040030359781930   1.0




# HOIP entry ID:                    1288
# Khazana ID:                       3138
# Organic cation source:            B.Saparov et al., Chem. Rev. 116, 4558 (2016)
# Label:                            Guanidinium Lead Iodide
# Material class:                   Hybrid organic-inorganic perovskite ( MC_ino )
# Geometry class:                   Bulk crystalline materials ( GC_cry )
# Organic cation chemical formula:  C(NH2)3
# Number of atom types:             5
# Total number of atoms:            14
# Atom types:                       C H N  Pb I
# Number of each atom:              1 6 3  1 3
# Bandgap, HSE06 (eV):              2.8905
# Bandgap, GGA (eV):                2.0785
# Kpoint for VBM:                   0.5, 0, 0
# Kpoint for CBM:                   0, 0, 0.5
# Dielectric constant, electronic:  4.6942
# Dielectric constant, ionic:       6.6815
# Dielectric constant, total:       11.3757
# Refractive index:                 2.1666
# Atomization energy (eV/atom):     -4.4891
# Relative energy1 (eV/atom):       0.5451
# Relative energy2 (eV/atom):       0.7057
# Volume of the unit cell (A^3):    259.17
# Density (g/cm^3):                 4.1519
# Tool:                             VASP
# Pseudopotential:                  PAW
# Note:                             ENCUT=400eV, k-spacing_relax=0.20/Angstrom, k-spacing_bandgap=0.15/Angstrom
# Created by:                       C.Kim, T.D.Huan, S.Krishnan, R. Ramprasad