data_1
_audit_creation_method   'Generated by vasp2cif'
_cell_length_a    6.09375446831
_cell_length_b    6.64480274131
_cell_length_c    6.47462016388
_cell_angle_alpha    98.4482933006
_cell_angle_beta    72.6689378784
_cell_angle_gamma    77.0203859915

_symmetry_space_group_name_H-M    'P 1'
loop_
_atom_site_label
_atom_site_type_symbol
_atom_site_fract_x
_atom_site_fract_y
_atom_site_fract_z
_atom_site_occupancy
I1   I   0.079133964625283   0.070405620798406   0.604850338021039   1.0
I2   I   0.555176922382957   0.810457454877075   0.929594601916056   1.0
I3   I   0.056119821731861   0.489162286010748   0.167823915305183   1.0
H4   H   0.301211709842494   0.550343873353105   0.418992326146595   1.0
H5   H   0.592088261826470   0.558300296717423   0.364780420924808   1.0
H6   H   0.414397440950745   0.607554505094102   0.632849847281767   1.0
H7   H   0.391642153835863   0.246088469187591   0.518180627468294   1.0
Pb8   Pb   0.997194463023465   0.003835550952203   0.122702109152357   1.0
N9   N   0.448921216705009   0.521789259951008   0.472754712228097   1.0
O10   O   0.537854045075893   0.296582683058386   0.459461101555659   1.0




# HOIP entry ID:                    1289
# Khazana ID:                       3139
# Organic cation source:            G.Kieslich et al., Chem. Sci. 6, 3430 (2015)
# Label:                            Hydroxylammonium Lead Iodide
# Material class:                   Hybrid organic-inorganic perovskite ( MC_ino )
# Geometry class:                   Bulk crystalline materials ( GC_cry )
# Organic cation chemical formula:  OHNH3
# Number of atom types:             5
# Total number of atoms:            10
# Atom types:                        H N O Pb I
# Number of each atom:               4 1  1 3
# Bandgap, HSE06 (eV):              2.8193
# Bandgap, GGA (eV):                1.9443
# Kpoint for VBM:                   0.3158, 0.3158, 0.3158
# Kpoint for CBM:                   0.0714, 0.5, 0.3571
# Dielectric constant, electronic:  5.1792
# Dielectric constant, ionic:       21.8846
# Dielectric constant, total:       27.0639
# Refractive index:                 2.2758
# Atomization energy (eV/atom):     -3.5863
# Relative energy1 (eV/atom):       0.6398
# Relative energy2 (eV/atom):       0.8647
# Volume of the unit cell (A^3):    237.34
# Density (g/cm^3):                 4.3516
# Tool:                             VASP
# Pseudopotential:                  PAW
# Note:                             ENCUT=400eV, k-spacing_relax=0.20/Angstrom, k-spacing_bandgap=0.15/Angstrom
# Created by:                       C.Kim, T.D.Huan, S.Krishnan, R. Ramprasad