data_1
_audit_creation_method   'Generated by vasp2cif'
_cell_length_a    6.45617939759
_cell_length_b    4.72663754795
_cell_length_c    8.119690064
_cell_angle_alpha    106.570999634
_cell_angle_beta    87.101193599
_cell_angle_gamma    91.6922151494

_symmetry_space_group_name_H-M    'P 1'
loop_
_atom_site_label
_atom_site_type_symbol
_atom_site_fract_x
_atom_site_fract_y
_atom_site_fract_z
_atom_site_occupancy
I1   I   0.983215107698449   0.165332599981298   0.714743656166242   1.0
I2   I   0.478631501961701   0.838720792008303   0.047607130944492   1.0
I3   I   0.953782373993938   0.453871001907203   0.306469692495135   1.0
H4   H   0.497433669379262   0.910713652610895   0.380163026256120   1.0
H5   H   0.624587778877526   0.946746449263522   0.565953105918545   1.0
H6   H   0.370934319069320   0.050658082810415   0.578582195238788   1.0
H7   H   0.288099302704794   0.566335563637310   0.448434133951615   1.0
Pb8   Pb   0.982374150464146   0.808584706076701   0.010946485000666   1.0
N9   N   0.482183251685434   0.902734135115750   0.508283018455650   1.0
O10   O   0.420278544165434   0.607513016588612   0.512597555572711   1.0




# HOIP entry ID:                    1290
# Khazana ID:                       3140
# Organic cation source:            G.Kieslich et al., Chem. Sci. 6, 3430 (2015)
# Label:                            Hydroxylammonium Lead Iodide
# Material class:                   Hybrid organic-inorganic perovskite ( MC_ino )
# Geometry class:                   Bulk crystalline materials ( GC_cry )
# Organic cation chemical formula:  OHNH3
# Number of atom types:             5
# Total number of atoms:            10
# Atom types:                        H N O Pb I
# Number of each atom:               4 1  1 3
# Bandgap, HSE06 (eV):              2.7895
# Bandgap, GGA (eV):                2.0513
# Kpoint for VBM:                   0.5, 0, 0.5
# Kpoint for CBM:                   0.5, 0.5, 0.5
# Dielectric constant, electronic:  5.2289
# Dielectric constant, ionic:       15.9864
# Dielectric constant, total:       21.2154
# Refractive index:                 2.2867
# Atomization energy (eV/atom):     -3.6105
# Relative energy1 (eV/atom):       0.6156
# Relative energy2 (eV/atom):       0.8404
# Volume of the unit cell (A^3):    237.16
# Density (g/cm^3):                 4.3549
# Tool:                             VASP
# Pseudopotential:                  PAW
# Note:                             ENCUT=400eV, k-spacing_relax=0.20/Angstrom, k-spacing_bandgap=0.15/Angstrom
# Created by:                       C.Kim, T.D.Huan, S.Krishnan, R. Ramprasad