data_1
_audit_creation_method   'Generated by vasp2cif'
_cell_length_a    8.11625272435
_cell_length_b    4.75445283334
_cell_length_c    6.44499496392
_cell_angle_alpha    89.5476783399
_cell_angle_beta    92.2004534077
_cell_angle_gamma    72.6376064077

_symmetry_space_group_name_H-M    'P 1'
loop_
_atom_site_label
_atom_site_type_symbol
_atom_site_fract_x
_atom_site_fract_y
_atom_site_fract_z
_atom_site_occupancy
I1   I   0.764312010441088   0.336150943574381   0.130245663497440   1.0
I2   I   0.107545599309297   0.677525466671291   0.629038338418695   1.0
I3   I   0.355483848336810   0.036049832515964   0.151926495079813   1.0
H4   H   0.437388349155995   0.369340124436306   0.614353668985700   1.0
H5   H   0.624119507895195   0.218737004024142   0.487737058420720   1.0
H6   H   0.635694017298128   0.315215543173210   0.742211720065434   1.0
H7   H   0.505322521985363   0.964219591529250   0.821881860951173   1.0
Pb8   Pb   0.061052177474785   0.684909915372813   0.125186217784403   1.0
N9   N   0.566119645935792   0.234420717334274   0.630038726022775   1.0
O10   O   0.571602322167578   0.937370861368358   0.690770250773845   1.0




# HOIP entry ID:                    1291
# Khazana ID:                       3141
# Organic cation source:            G.Kieslich et al., Chem. Sci. 6, 3430 (2015)
# Label:                            Hydroxylammonium Lead Iodide
# Material class:                   Hybrid organic-inorganic perovskite ( MC_ino )
# Geometry class:                   Bulk crystalline materials ( GC_cry )
# Organic cation chemical formula:  OHNH3
# Number of atom types:             5
# Total number of atoms:            10
# Atom types:                        H N O Pb I
# Number of each atom:               4 1  1 3
# Bandgap, HSE06 (eV):              2.8566
# Bandgap, GGA (eV):                2.1164
# Kpoint for VBM:                   0.1, 0.2778, 0.5
# Kpoint for CBM:                   -0.3, 0.3889, 0.5
# Dielectric constant, electronic:  5.2325
# Dielectric constant, ionic:       12.5533
# Dielectric constant, total:       17.7859
# Refractive index:                 2.2875
# Atomization energy (eV/atom):     -3.6101
# Relative energy1 (eV/atom):       0.616
# Relative energy2 (eV/atom):       0.8408
# Volume of the unit cell (A^3):    237.15
# Density (g/cm^3):                 4.355
# Tool:                             VASP
# Pseudopotential:                  PAW
# Note:                             ENCUT=400eV, k-spacing_relax=0.20/Angstrom, k-spacing_bandgap=0.15/Angstrom
# Created by:                       C.Kim, T.D.Huan, S.Krishnan, R. Ramprasad