data_1
_audit_creation_method   'Generated by vasp2cif'
_cell_length_a    6.45155113497
_cell_length_b    4.65476142726
_cell_length_c    8.17958071044
_cell_angle_alpha    105.852731893
_cell_angle_beta    86.167344831
_cell_angle_gamma    92.9232297118

_symmetry_space_group_name_H-M    'P 1'
loop_
_atom_site_label
_atom_site_type_symbol
_atom_site_fract_x
_atom_site_fract_y
_atom_site_fract_z
_atom_site_occupancy
I1   I   0.873569229779029   0.912689998271658   0.754949777400584   1.0
I2   I   0.356339772883221   0.611651236638126   0.027700975011460   1.0
I3   I   0.857379966046206   0.195508549341949   0.346364542272797   1.0
H4   H   0.459790956453483   0.096907318310469   0.489126192400738   1.0
H5   H   0.489230775006277   0.972504842336027   0.660483253869461   1.0
H6   H   0.241397937431643   0.035267003518919   0.614992396150241   1.0
H7   H   0.346765103883351   0.655892359077900   0.348835136112995   1.0
Pb8   Pb   0.856237741607436   0.548420055485576   0.054781166833820   1.0
N9   N   0.389537356670337   0.967202620479737   0.564297404438426   1.0
O10   O   0.375021160239043   0.655286016539556   0.467869155509492   1.0




# HOIP entry ID:                    1292
# Khazana ID:                       3142
# Organic cation source:            G.Kieslich et al., Chem. Sci. 6, 3430 (2015)
# Label:                            Hydroxylammonium Lead Iodide
# Material class:                   Hybrid organic-inorganic perovskite ( MC_ino )
# Geometry class:                   Bulk crystalline materials ( GC_cry )
# Organic cation chemical formula:  OHNH3
# Number of atom types:             5
# Total number of atoms:            10
# Atom types:                        H N O Pb I
# Number of each atom:               4 1  1 3
# Bandgap, HSE06 (eV):              2.7773
# Bandgap, GGA (eV):                2.0202
# Kpoint for VBM:                   0.5, 0.0556, 0.5
# Kpoint for CBM:                   0.5, 0.5, 0
# Dielectric constant, electronic:  5.2155
# Dielectric constant, ionic:       12.2428
# Dielectric constant, total:       17.4582
# Refractive index:                 2.2837
# Atomization energy (eV/atom):     -3.6042
# Relative energy1 (eV/atom):       0.6219
# Relative energy2 (eV/atom):       0.8467
# Volume of the unit cell (A^3):    235.63
# Density (g/cm^3):                 4.3831
# Tool:                             VASP
# Pseudopotential:                  PAW
# Note:                             ENCUT=400eV, k-spacing_relax=0.20/Angstrom, k-spacing_bandgap=0.15/Angstrom
# Created by:                       C.Kim, T.D.Huan, S.Krishnan, R. Ramprasad