data_1
_audit_creation_method   'Generated by vasp2cif'
_cell_length_a    8.25570469299
_cell_length_b    4.67201239709
_cell_length_c    6.57560564258
_cell_angle_alpha    87.6639508832
_cell_angle_beta    76.1412833422
_cell_angle_gamma    74.6673633508

_symmetry_space_group_name_H-M    'P 1'
loop_
_atom_site_label
_atom_site_type_symbol
_atom_site_fract_x
_atom_site_fract_y
_atom_site_fract_z
_atom_site_occupancy
I1   I   0.776376508986331   0.383124832271378   0.230718821612122   1.0
I2   I   0.166022645834154   0.705041367126050   0.744646871836608   1.0
I3   I   0.367075132500730   0.106391758291693   0.202499202155714   1.0
H4   H   0.442713774259524   0.948554513764364   0.631031883671909   1.0
H5   H   0.595622660685173   0.141052156603308   0.534672472417427   1.0
H6   H   0.468405429863374   0.206603938758761   0.783909601215115   1.0
H7   H   0.624678892004326   0.823471900702714   0.889527946361198   1.0
Pb8   Pb   0.066039921330251   0.747871850778679   0.243457324807338   1.0
N9   N   0.532945346683732   0.046246093783445   0.666252183380848   1.0
O10   O   0.667099687852435   0.820871587919655   0.734273692541706   1.0




# HOIP entry ID:                    1293
# Khazana ID:                       3143
# Organic cation source:            G.Kieslich et al., Chem. Sci. 6, 3430 (2015)
# Label:                            Hydroxylammonium Lead Iodide
# Material class:                   Hybrid organic-inorganic perovskite ( MC_ino )
# Geometry class:                   Bulk crystalline materials ( GC_cry )
# Organic cation chemical formula:  OHNH3
# Number of atom types:             5
# Total number of atoms:            10
# Atom types:                        H N O Pb I
# Number of each atom:               4 1  1 3
# Bandgap, HSE06 (eV):              3.1221
# Bandgap, GGA (eV):                2.2867
# Kpoint for VBM:                   0.5, -0.0556, 0.3333
# Kpoint for CBM:                   0.1, 0.5, 0.5
# Dielectric constant, electronic:  5.0559
# Dielectric constant, ionic:       9.0654
# Dielectric constant, total:       14.1213
# Refractive index:                 2.2485
# Atomization energy (eV/atom):     -3.6009
# Relative energy1 (eV/atom):       0.6251
# Relative energy2 (eV/atom):       0.85
# Volume of the unit cell (A^3):    237.41
# Density (g/cm^3):                 4.3503
# Tool:                             VASP
# Pseudopotential:                  PAW
# Note:                             ENCUT=400eV, k-spacing_relax=0.20/Angstrom, k-spacing_bandgap=0.15/Angstrom
# Created by:                       C.Kim, T.D.Huan, S.Krishnan, R. Ramprasad