data_1
_audit_creation_method   'Generated by vasp2cif'
_cell_length_a    6.61412543642
_cell_length_b    4.66920134461
_cell_length_c    8.14093529498
_cell_angle_alpha    104.423605605
_cell_angle_beta    100.980857522
_cell_angle_gamma    83.1171120362

_symmetry_space_group_name_H-M    'P 1'
loop_
_atom_site_label
_atom_site_type_symbol
_atom_site_fract_x
_atom_site_fract_y
_atom_site_fract_z
_atom_site_occupancy
I1   I   0.847332975776930   0.144084289816303   0.746207336181664   1.0
I2   I   0.378309852101455   0.656069756596450   0.993347985707575   1.0
I3   I   0.967824891505958   0.387624612896905   0.347706495490907   1.0
H4   H   0.219856214823465   0.061410792370928   0.547354044860974   1.0
H5   H   0.464022648046175   0.086094105619301   0.665541476609566   1.0
H6   H   0.302288639236758   0.865045014783778   0.705114681059425   1.0
H7   H   0.317636321648153   0.594455434521925   0.421306037473822   1.0
Pb8   Pb   0.896809527765774   0.766476751075726   0.039847295617526   1.0
N9   N   0.344247447430387   0.947877523741433   0.609415632174030   1.0
O10   O   0.436581481664978   0.712001718577270   0.486529014824498   1.0




# HOIP entry ID:                    1294
# Khazana ID:                       3144
# Organic cation source:            G.Kieslich et al., Chem. Sci. 6, 3430 (2015)
# Label:                            Hydroxylammonium Lead Iodide
# Material class:                   Hybrid organic-inorganic perovskite ( MC_ino )
# Geometry class:                   Bulk crystalline materials ( GC_cry )
# Organic cation chemical formula:  OHNH3
# Number of atom types:             5
# Total number of atoms:            10
# Atom types:                        H N O Pb I
# Number of each atom:               4 1  1 3
# Bandgap, HSE06 (eV):              2.938
# Bandgap, GGA (eV):                2.1009
# Kpoint for VBM:                   -0.3333, 0.0556, 0.5
# Kpoint for CBM:                   0.5, 0.5, 0
# Dielectric constant, electronic:  5.0549
# Dielectric constant, ionic:       12.2361
# Dielectric constant, total:       17.291
# Refractive index:                 2.2483
# Atomization energy (eV/atom):     -3.603
# Relative energy1 (eV/atom):       0.6231
# Relative energy2 (eV/atom):       0.8479
# Volume of the unit cell (A^3):    238.34
# Density (g/cm^3):                 4.3333
# Tool:                             VASP
# Pseudopotential:                  PAW
# Note:                             ENCUT=400eV, k-spacing_relax=0.20/Angstrom, k-spacing_bandgap=0.15/Angstrom
# Created by:                       C.Kim, T.D.Huan, S.Krishnan, R. Ramprasad