data_1
_audit_creation_method   'Generated by vasp2cif'
_cell_length_a    8.29774939955
_cell_length_b    4.66212152245
_cell_length_c    6.3977954519
_cell_angle_alpha    89.892051729
_cell_angle_beta    91.0371740838
_cell_angle_gamma    73.3497392145

_symmetry_space_group_name_H-M    'P 1'
loop_
_atom_site_label
_atom_site_type_symbol
_atom_site_fract_x
_atom_site_fract_y
_atom_site_fract_z
_atom_site_occupancy
I1   I   0.287318988815841   0.008743336327264   0.979594138339266   1.0
I2   I   0.924769048705670   0.736273747618007   0.476577501465741   1.0
I3   I   0.697323894310642   0.308259565805159   0.967018385623383   1.0
H4   H   0.556595087375399   0.507919155818982   0.301731462591341   1.0
H5   H   0.624819966643585   0.566328785292058   0.545232242260887   1.0
H6   H   0.465363905017838   0.337662248806460   0.680017614269453   1.0
H7   H   0.435864481723186   0.788800996778903   0.451527882349431   1.0
Pb8   Pb   0.999854635629298   0.650428495077932   0.978395654380549   1.0
N9   N   0.518065998660724   0.574919423170542   0.453684036324326   1.0
O10   O   0.431353993117788   0.365424245304752   0.529101082395584   1.0




# HOIP entry ID:                    1295
# Khazana ID:                       3145
# Organic cation source:            G.Kieslich et al., Chem. Sci. 6, 3430 (2015)
# Label:                            Hydroxylammonium Lead Iodide
# Material class:                   Hybrid organic-inorganic perovskite ( MC_ino )
# Geometry class:                   Bulk crystalline materials ( GC_cry )
# Organic cation chemical formula:  OHNH3
# Number of atom types:             5
# Total number of atoms:            10
# Atom types:                        H N O Pb I
# Number of each atom:               4 1  1 3
# Bandgap, HSE06 (eV):              3.0419
# Bandgap, GGA (eV):                2.2782
# Kpoint for VBM:                   0.5, 0.0556, 0.5
# Kpoint for CBM:                   0.5, 0.5, 0.5
# Dielectric constant, electronic:  5.2252
# Dielectric constant, ionic:       21.0673
# Dielectric constant, total:       26.2925
# Refractive index:                 2.2859
# Atomization energy (eV/atom):     -3.6018
# Relative energy1 (eV/atom):       0.6243
# Relative energy2 (eV/atom):       0.8492
# Volume of the unit cell (A^3):    237.08
# Density (g/cm^3):                 4.3563
# Tool:                             VASP
# Pseudopotential:                  PAW
# Note:                             ENCUT=400eV, k-spacing_relax=0.20/Angstrom, k-spacing_bandgap=0.15/Angstrom
# Created by:                       C.Kim, T.D.Huan, S.Krishnan, R. Ramprasad