data_1
_audit_creation_method   'Generated by vasp2cif'
_cell_length_a    6.49824182462
_cell_length_b    6.48788689381
_cell_length_c    6.44508063093
_cell_angle_alpha    83.8061283056
_cell_angle_beta    85.5718732033
_cell_angle_gamma    86.5803118223

_symmetry_space_group_name_H-M    'P 1'
loop_
_atom_site_label
_atom_site_type_symbol
_atom_site_fract_x
_atom_site_fract_y
_atom_site_fract_z
_atom_site_occupancy
Pb1   Pb   0.625764776565156   0.353311359327165   0.494397504448052   1.0
I2   I   0.675276334332189   0.860816035254821   0.465768278029252   1.0
I3   I   0.127770020084057   0.326220351202679   0.513139740288246   1.0
I4   I   0.589962573477422   0.418011579088876   0.994499589823626   1.0
N5   N   0.088288726021787   0.755363399532690   0.867486926930859   1.0
N6   N   0.227125627909785   0.928689032291075   0.119203143485656   1.0
H7   H   0.203667786446161   0.641689309945029   0.867700763036027   1.0
H8   H   0.353403593761890   0.828825531577905   0.134069393890904   1.0
H9   H   0.975391532829299   0.751964017178494   0.766815741192431   1.0
H10   H   0.209941023889570   0.045308535538197   0.214421096445307   1.0
H11   H   0.955108171866542   0.020389623848445   0.982917552600796   1.0
C12   C   0.084459832816094   0.906401225214637   0.989480269828910   1.0




# HOIP entry ID:                    1296
# Khazana ID:                       3146
# Organic cation source:            T.D.Huan et al., Phys. Rev. B 93,094105(2016)
# Label:                            Formamidinium Lead Iodide
# Material class:                   Hybrid organic-inorganic perovskite ( MC_ino )
# Geometry class:                   Bulk crystalline materials ( GC_cry )
# Organic cation chemical formula:  HC(NH2)2
# Number of atom types:             5
# Total number of atoms:            12
# Atom types:                       C H N  Pb I
# Number of each atom:              1 5 2  1 3
# Bandgap, HSE06 (eV):              2.3661
# Bandgap, GGA (eV):                1.6258
# Kpoint for VBM:                   0.5, 0.5, 0.5
# Kpoint for CBM:                   0.4474, 0.4474, 0.4474
# Dielectric constant, electronic:  5.2728
# Dielectric constant, ionic:       27.0723
# Dielectric constant, total:       32.345
# Refractive index:                 2.2963
# Atomization energy (eV/atom):     -4.2732
# Relative energy1 (eV/atom):       0.1222
# Relative energy2 (eV/atom):       0.3096
# Volume of the unit cell (A^3):    268.97
# Density (g/cm^3):                 3.9079
# Tool:                             VASP
# Pseudopotential:                  PAW
# Note:                             ENCUT=400eV, k-spacing_relax=0.20/Angstrom, k-spacing_bandgap=0.15/Angstrom
# Created by:                       C.Kim, T.D.Huan, S.Krishnan, R. Ramprasad