data_1
_audit_creation_method   'Generated by vasp2cif'
_cell_length_a    6.76459108644
_cell_length_b    6.36358805362
_cell_length_c    6.36234671491
_cell_angle_alpha    92.6896283186
_cell_angle_beta    90.3686053302
_cell_angle_gamma    89.882669887

_symmetry_space_group_name_H-M    'P 1'
loop_
_atom_site_label
_atom_site_type_symbol
_atom_site_fract_x
_atom_site_fract_y
_atom_site_fract_z
_atom_site_occupancy
Pb1   Pb   0.438021450750362   0.371157917052642   0.629167263328071   1.0
I2   I   0.515990132944516   0.870807772126874   0.649511548852921   1.0
I3   I   0.516485277549997   0.351959207691131   0.129859731210821   1.0
I4   I   0.979256784020151   0.403988922128910   0.597256511953262   1.0
N5   N   0.179738061824075   0.852897285431396   0.143153623273100   1.0
N6   N   0.836058409196710   0.842663005123647   0.161956046005948   1.0
H7   H   0.201928421156410   0.743760865514048   0.252832728619445   1.0
H8   H   0.832517887080307   0.732440193806390   0.273088869285679   1.0
H9   H   0.300415836303976   0.915045044078902   0.075026823928496   1.0
H10   H   0.705574336143506   0.899604899238639   0.108951182207100   1.0
H11   H   0.991509088100351   0.031507915631437   0.966921784561166   1.0
C12   C   0.001872278600253   0.914126927427375   0.085473869774503   1.0




# HOIP entry ID:                    1297
# Khazana ID:                       3147
# Organic cation source:            T.D.Huan et al., Phys. Rev. B 93,094105(2016)
# Label:                            Formamidinium Lead Iodide
# Material class:                   Hybrid organic-inorganic perovskite ( MC_ino )
# Geometry class:                   Bulk crystalline materials ( GC_cry )
# Organic cation chemical formula:  HC(NH2)2
# Number of atom types:             5
# Total number of atoms:            12
# Atom types:                       C H N  Pb I
# Number of each atom:              1 5 2  1 3
# Bandgap, HSE06 (eV):              2.6345
# Bandgap, GGA (eV):                1.8973
# Kpoint for VBM:                   0, 0.5, 0.5
# Kpoint for CBM:                   0.4474, 0.4474, 0.4474
# Dielectric constant, electronic:  4.9845
# Dielectric constant, ionic:       10.0306
# Dielectric constant, total:       15.0151
# Refractive index:                 2.2326
# Atomization energy (eV/atom):     -4.2635
# Relative energy1 (eV/atom):       0.1319
# Relative energy2 (eV/atom):       0.3193
# Volume of the unit cell (A^3):    273.57
# Density (g/cm^3):                 3.8422
# Tool:                             VASP
# Pseudopotential:                  PAW
# Note:                             ENCUT=400eV, k-spacing_relax=0.20/Angstrom, k-spacing_bandgap=0.15/Angstrom
# Created by:                       C.Kim, T.D.Huan, S.Krishnan, R. Ramprasad