data_1
_audit_creation_method   'Generated by vasp2cif'
_cell_length_a    6.36392571171
_cell_length_b    6.69949002842
_cell_length_c    6.42217713345
_cell_angle_alpha    101.132319993
_cell_angle_beta    95.3312493863
_cell_angle_gamma    76.9126225664

_symmetry_space_group_name_H-M    'P 1'
loop_
_atom_site_label
_atom_site_type_symbol
_atom_site_fract_x
_atom_site_fract_y
_atom_site_fract_z
_atom_site_occupancy
Pb1   Pb   0.395296159184113   0.509961053741542   0.451539823503900   1.0
I2   I   0.541078452737892   0.936419655012422   0.283125866506765   1.0
I3   I   0.490214489333262   0.347782045727854   0.881239050257996   1.0
I4   I   0.961351422720313   0.353055220079639   0.402668662837044   1.0
N5   N   0.903249040886941   0.697742298642197   0.958874686951802   1.0
N6   N   0.190300469824820   0.856932298080764   0.679057478808595   1.0
H7   H   0.098192940558029   0.801694732039529   0.768688763924516   1.0
H8   H   0.090004666556553   0.961735465046374   0.597444250058636   1.0
H9   H   0.849290429060041   0.565371768506949   0.964399033664492   1.0
H10   H   0.288814729535112   0.937970816627640   0.779967497850429   1.0
H11   H   0.861765032109879   0.015970240594378   0.067279809939464   1.0
C12   C   0.816782167493045   0.867894405900600   0.063725075696446   1.0




# HOIP entry ID:                    1298
# Khazana ID:                       3148
# Organic cation source:            T.D.Huan et al., Phys. Rev. B 93,094105(2016)
# Label:                            Formamidinium Lead Iodide
# Material class:                   Hybrid organic-inorganic perovskite ( MC_ino )
# Geometry class:                   Bulk crystalline materials ( GC_cry )
# Organic cation chemical formula:  HC(NH2)2
# Number of atom types:             5
# Total number of atoms:            12
# Atom types:                       C H N  Pb I
# Number of each atom:              1 5 2  1 3
# Bandgap, HSE06 (eV):              3.2799
# Bandgap, GGA (eV):                2.3022
# Kpoint for VBM:                   0.5, 0, 0.5
# Kpoint for CBM:                   0.5, 0.5, 0.5
# Dielectric constant, electronic:  4.5865
# Dielectric constant, ionic:       5.0675
# Dielectric constant, total:       9.6541
# Refractive index:                 2.1416
# Atomization energy (eV/atom):     -4.1359
# Relative energy1 (eV/atom):       0.2595
# Relative energy2 (eV/atom):       0.4469
# Volume of the unit cell (A^3):    261.33
# Density (g/cm^3):                 4.0222
# Tool:                             VASP
# Pseudopotential:                  PAW
# Note:                             ENCUT=400eV, k-spacing_relax=0.20/Angstrom, k-spacing_bandgap=0.15/Angstrom
# Created by:                       C.Kim, T.D.Huan, S.Krishnan, R. Ramprasad