data_1
_audit_creation_method   'Generated by vasp2cif'
_cell_length_a    6.83311217037
_cell_length_b    6.74352171526
_cell_length_c    6.66236677496
_cell_angle_alpha    90.019241918
_cell_angle_beta    89.9895517529
_cell_angle_gamma    90.0332834398

_symmetry_space_group_name_H-M    'P 1'
loop_
_atom_site_label
_atom_site_type_symbol
_atom_site_fract_x
_atom_site_fract_y
_atom_site_fract_z
_atom_site_occupancy
C1   C   0.321106965637164   0.357096217602248   0.482766196010473   1.0
C2   C   0.588789668974982   0.527353835688537   0.298537630804646   1.0
C3   C   0.586169799211653   0.528161763197744   0.670138410378421   1.0
C4   C   0.339814047552586   0.723673008822217   0.482195448183042   1.0
H5   H   0.440546902145790   0.849045198851996   0.482806988081705   1.0
H6   H   0.250314445936333   0.724266488186899   0.347263415829062   1.0
H7   H   0.232056905065178   0.365047409868936   0.347666040091347   1.0
H8   H   0.495668245417917   0.534038767295378   0.165960918539518   1.0
H9   H   0.491170448286120   0.535602197660715   0.801326725880756   1.0
H10   H   0.684479260161126   0.655042214065340   0.665406581538377   1.0
H11   H   0.686977333119501   0.654302266913874   0.304138027338460   1.0
H12   H   0.248238071507863   0.724731839769845   0.615708544267484   1.0
H13   H   0.668660676970454   0.390196827051810   0.668837854983721   1.0
H14   H   0.408404262953319   0.221932987379546   0.484172020340026   1.0
H15   H   0.671359156002524   0.389443396881276   0.301652264699946   1.0
H16   H   0.229524940270999   0.366173386352059   0.616051675681902   1.0
I17   I   0.444272488313608   0.036879437749683   0.983100194515515   1.0
I18   I   0.024449379654833   0.540754696354860   0.982838623096193   1.0
I19   I   0.891532732667834   0.030983714014937   0.483823807943033   1.0
N20   N   0.458943571817329   0.533817739517694   0.483412511491934   1.0
Pb21   Pb   0.982550698332822   0.020206606774465   0.982846120303329   1.0




# HOIP entry ID:                    1299
# Khazana ID:                       3149
# Organic cation source:            B.Saparov et al., Chem. Rev. 116, 4558 (2016)
# Label:                            Tetramethylammonium Lead Iodide
# Material class:                   Hybrid organic-inorganic perovskite ( MC_ino )
# Geometry class:                   Bulk crystalline materials ( GC_cry )
# Organic cation chemical formula:  (CH3)4N
# Number of atom types:             5
# Total number of atoms:            21
# Atom types:                       C H N  Pb I
# Number of each atom:              4 12 1  1 3
# Bandgap, HSE06 (eV):              2.5459
# Bandgap, GGA (eV):                1.7965
# Kpoint for VBM:                   0.4474, 0.4474, 0.4474
# Kpoint for CBM:                   0.5, 0.5, 0.4737
# Dielectric constant, electronic:  4.8919
# Dielectric constant, ionic:       24.7271
# Dielectric constant, total:       29.619
# Refractive index:                 2.2118
# Atomization energy (eV/atom):     -4.4057
# Relative energy1 (eV/atom):       0.0862
# Relative energy2 (eV/atom):       0.1771
# Volume of the unit cell (A^3):    307
# Density (g/cm^3):                 3.5811
# Tool:                             VASP
# Pseudopotential:                  PAW
# Note:                             ENCUT=400eV, k-spacing_relax=0.20/Angstrom, k-spacing_bandgap=0.15/Angstrom
# Created by:                       C.Kim, T.D.Huan, S.Krishnan, R. Ramprasad