data_1
_audit_creation_method   'Generated by vasp2cif'
_cell_length_a    6.655442336
_cell_length_b    6.8394725301
_cell_length_c    6.74546601561
_cell_angle_alpha    90.038194665
_cell_angle_beta    89.918065486
_cell_angle_gamma    89.8321634535

_symmetry_space_group_name_H-M    'P 1'
loop_
_atom_site_label
_atom_site_type_symbol
_atom_site_fract_x
_atom_site_fract_y
_atom_site_fract_z
_atom_site_occupancy
C1   C   0.411736942226909   0.351595080256821   0.350436511679440   1.0
C2   C   0.609849271337012   0.593620935518217   0.541092144859427   1.0
C3   C   0.412563503405103   0.339659378676302   0.717201657482640   1.0
C4   C   0.238170691758711   0.611099474884625   0.542887778105083   1.0
H5   H   0.244841110227306   0.695801248109191   0.679358339683667   1.0
H6   H   0.101828817788224   0.523358988114978   0.538084317161264   1.0
H7   H   0.272932583940310   0.268058706851079   0.351645296456269   1.0
H8   H   0.611180949127522   0.679839092130408   0.676738895387942   1.0
H9   H   0.272687950893456   0.257872068038616   0.712654704352303   1.0
H10   H   0.420365760311355   0.429153266571156   0.850660161973579   1.0
H11   H   0.737286088926375   0.493250426677697   0.536917767595511   1.0
H12   H   0.247313666332047   0.706775615398598   0.414390918880486   1.0
H13   H   0.540875289579404   0.241118869076097   0.708032183326388   1.0
H14   H   0.416501741147854   0.449694877030254   0.223263070414326   1.0
H15   H   0.609743100970860   0.688312568859310   0.411551250270392   1.0
H16   H   0.541307877254553   0.254335699548221   0.350963878077508   1.0
I17   I   0.419501771043990   0.906364049829122   0.039783126172935   1.0
I18   I   0.914550876345963   0.038743514491294   0.531543465178871   1.0
I19   I   0.916210929406276   0.459540039253071   0.035161760007597   1.0
N20   N   0.418061739681015   0.474011808089273   0.538086655120097   1.0
Pb21   Pb   0.916599338295697   0.998944292595745   0.051566117814261   1.0




# HOIP entry ID:                    1300
# Khazana ID:                       3150
# Organic cation source:            B.Saparov et al., Chem. Rev. 116, 4558 (2016)
# Label:                            Tetramethylammonium Lead Iodide
# Material class:                   Hybrid organic-inorganic perovskite ( MC_ino )
# Geometry class:                   Bulk crystalline materials ( GC_cry )
# Organic cation chemical formula:  (CH3)4N
# Number of atom types:             5
# Total number of atoms:            21
# Atom types:                       C H N  Pb I
# Number of each atom:              4 12 1  1 3
# Bandgap, HSE06 (eV):              2.5415
# Bandgap, GGA (eV):                1.6871
# Kpoint for VBM:                   0.4211, 0.5, 0
# Kpoint for CBM:                   0.5, 0.5, 0.5
# Dielectric constant, electronic:  4.8818
# Dielectric constant, ionic:       23.7591
# Dielectric constant, total:       28.6409
# Refractive index:                 2.2095
# Atomization energy (eV/atom):     -4.4057
# Relative energy1 (eV/atom):       0.0862
# Relative energy2 (eV/atom):       0.1771
# Volume of the unit cell (A^3):    307.05
# Density (g/cm^3):                 3.5805
# Tool:                             VASP
# Pseudopotential:                  PAW
# Note:                             ENCUT=400eV, k-spacing_relax=0.20/Angstrom, k-spacing_bandgap=0.15/Angstrom
# Created by:                       C.Kim, T.D.Huan, S.Krishnan, R. Ramprasad