data_1
_audit_creation_method   'Generated by vasp2cif'
_cell_length_a    7.35083701009
_cell_length_b    5.06582810027
_cell_length_c    8.67727308038
_cell_angle_alpha    91.8165777471
_cell_angle_beta    90.3011772425
_cell_angle_gamma    85.243795132

_symmetry_space_group_name_H-M    'P 1'
loop_
_atom_site_label
_atom_site_type_symbol
_atom_site_fract_x
_atom_site_fract_y
_atom_site_fract_z
_atom_site_occupancy
C1   C   0.426732034609181   0.374457558209777   0.475623784200074   1.0
C2   C   0.560549215797707   0.734078701799199   0.626090241347299   1.0
C3   C   0.369441409754344   0.430099667633712   0.758543640753281   1.0
C4   C   0.224962555200023   0.752626245841682   0.577829332749452   1.0
H5   H   0.242434623489103   0.847094344930795   0.468509709115850   1.0
H6   H   0.204343706711292   0.897970894347750   0.672590573559681   1.0
H7   H   0.443345541907725   0.482775352325099   0.370725988071072   1.0
H8   H   0.578566419748910   0.832396038270232   0.518017421085169   1.0
H9   H   0.253202398551075   0.311969821174827   0.743761887145020   1.0
H10   H   0.342358230258284   0.577989622752625   0.851411599583543   1.0
H11   H   0.536657150880295   0.876429136718336   0.722071899070727   1.0
H12   H   0.109279972999666   0.631266405506693   0.570076712896963   1.0
H13   H   0.494365623050420   0.308190289059169   0.784011586632218   1.0
H14   H   0.550556116474553   0.249454633820704   0.498531229345311   1.0
H15   H   0.679900515775763   0.599201405126855   0.649816195535735   1.0
H16   H   0.307544436349531   0.261735765611647   0.464650756674367   1.0
I17   I   0.437464338594168   0.892167711327843   0.124832560913639   1.0
I18   I   0.919383386514468   0.246092334853017   0.354777094556795   1.0
I19   I   0.890894626494649   0.212202932930524   0.851534834686113   1.0
N20   N   0.395693358488607   0.572843170418793   0.609799747580425   1.0
Pb21   Pb   0.859094338350161   0.758787967340695   0.107643204497116   1.0




# HOIP entry ID:                    1301
# Khazana ID:                       3151
# Organic cation source:            B.Saparov et al., Chem. Rev. 116, 4558 (2016)
# Label:                            Tetramethylammonium Lead Iodide
# Material class:                   Hybrid organic-inorganic perovskite ( MC_ino )
# Geometry class:                   Bulk crystalline materials ( GC_cry )
# Organic cation chemical formula:  (CH3)4N
# Number of atom types:             5
# Total number of atoms:            21
# Atom types:                       C H N  Pb I
# Number of each atom:              4 12 1  1 3
# Bandgap, HSE06 (eV):              3.229
# Bandgap, GGA (eV):                2.358
# Kpoint for VBM:                   -0.2, -0.1875, 0.375
# Kpoint for CBM:                   0.5, 0, 0.5
# Dielectric constant, electronic:  3.9188
# Dielectric constant, ionic:       6.0674
# Dielectric constant, total:       9.9861
# Refractive index:                 1.9796
# Atomization energy (eV/atom):     -4.3968
# Relative energy1 (eV/atom):       0.095
# Relative energy2 (eV/atom):       0.1859
# Volume of the unit cell (A^3):    321.85
# Density (g/cm^3):                 3.4159
# Tool:                             VASP
# Pseudopotential:                  PAW
# Note:                             ENCUT=400eV, k-spacing_relax=0.20/Angstrom, k-spacing_bandgap=0.15/Angstrom
# Created by:                       C.Kim, T.D.Huan, S.Krishnan, R. Ramprasad