data_1
_audit_creation_method   'Generated by vasp2cif'
_cell_length_a    6.50683696715
_cell_length_b    6.32345978502
_cell_length_c    6.48238403196
_cell_angle_alpha    92.0441257488
_cell_angle_beta    87.417828977
_cell_angle_gamma    90.1318385092

_symmetry_space_group_name_H-M    'P 1'
loop_
_atom_site_label
_atom_site_type_symbol
_atom_site_fract_x
_atom_site_fract_y
_atom_site_fract_z
_atom_site_occupancy
I1   I   0.932657688872034   0.940679908467274   0.545807787740436   1.0
I2   I   0.479362712672383   0.993450257098978   0.028939100307618   1.0
I3   I   0.024453097400602   0.483269434494218   0.981796453060866   1.0
H4   H   0.298564856670659   0.567597546611452   0.540388116656466   1.0
H5   H   0.516202889886571   0.674103061196611   0.453604766908001   1.0
H6   H   0.487757865037779   0.360196066724619   0.763081435852001   1.0
H7   H   0.701673521276689   0.483236357878838   0.680263185765142   1.0
H8   H   0.518143639950893   0.622573104945836   0.815145300485405   1.0
Pb9   Pb   0.980360866816198   0.989729430932300   0.070441211709309   1.0
N10   N   0.451186815511264   0.536126904227025   0.504815001197720   1.0
N11   N   0.544366045904866   0.500067927422798   0.704327640317160   1.0




# HOIP entry ID:                    1302
# Khazana ID:                       3152
# Organic cation source:            B.Saparov et al., Chem. Rev. 116, 4558 (2016)
# Label:                            Hydrazinium Lead Iodide
# Material class:                   Hybrid organic-inorganic perovskite ( MC_ino )
# Geometry class:                   Bulk crystalline materials ( GC_cry )
# Organic cation chemical formula:  NH2NH3
# Number of atom types:             4
# Total number of atoms:            11
# Atom types:                        H N  Pb I
# Number of each atom:               5 2  1 3
# Bandgap, HSE06 (eV):              2.5636
# Bandgap, GGA (eV):                1.8533
# Kpoint for VBM:                   0.5, 0.5, 0.2632
# Kpoint for CBM:                   0.5, 0.5, 0.5
# Dielectric constant, electronic:  5.0438
# Dielectric constant, ionic:       12.3356
# Dielectric constant, total:       17.3795
# Refractive index:                 2.2459
# Atomization energy (eV/atom):     -3.7814
# Relative energy1 (eV/atom):       0.667
# Relative energy2 (eV/atom):       0.8714
# Volume of the unit cell (A^3):    266.28
# Density (g/cm^3):                 3.8725
# Tool:                             VASP
# Pseudopotential:                  PAW
# Note:                             ENCUT=400eV, k-spacing_relax=0.20/Angstrom, k-spacing_bandgap=0.15/Angstrom
# Created by:                       C.Kim, T.D.Huan, S.Krishnan, R. Ramprasad