data_1
_audit_creation_method   'Generated by vasp2cif'
_cell_length_a    8.88229430027
_cell_length_b    6.32400460709
_cell_length_c    6.4652958967
_cell_angle_alpha    94.737284555
_cell_angle_beta    47.0063484942
_cell_angle_gamma    97.2577517586

_symmetry_space_group_name_H-M    'P 1'
loop_
_atom_site_label
_atom_site_type_symbol
_atom_site_fract_x
_atom_site_fract_y
_atom_site_fract_z
_atom_site_occupancy
I1   I   0.549479353178661   0.967152758822223   0.543240565311557   1.0
I2   I   0.051861167105869   0.962880116364865   0.482360979585067   1.0
I3   I   0.970187703157784   0.493845681470077   0.020295183704611   1.0
H4   H   0.532229330171063   0.654706708928188   0.139858787369995   1.0
H5   H   0.452522583354693   0.647260106610716   0.971831377213192   1.0
H6   H   0.750982632393324   0.404068053628045   0.861174041310129   1.0
H7   H   0.644826043500807   0.337160917730557   0.723118137334353   1.0
H8   H   0.792849663993110   0.572344274231504   0.636200464765366   1.0
Pb9   Pb   0.070993184937336   0.005660556882375   0.958709255486440   1.0
N10   N   0.491290622112572   0.553353514818745   0.049162562814409   1.0
N11   N   0.683257716094751   0.462717310512801   0.798368645104944   1.0




# HOIP entry ID:                    1303
# Khazana ID:                       3153
# Organic cation source:            B.Saparov et al., Chem. Rev. 116, 4558 (2016)
# Label:                            Hydrazinium Lead Iodide
# Material class:                   Hybrid organic-inorganic perovskite ( MC_ino )
# Geometry class:                   Bulk crystalline materials ( GC_cry )
# Organic cation chemical formula:  NH2NH3
# Number of atom types:             4
# Total number of atoms:            11
# Atom types:                        H N  Pb I
# Number of each atom:               5 2  1 3
# Bandgap, HSE06 (eV):              2.654
# Bandgap, GGA (eV):                1.9298
# Kpoint for VBM:                   0.5, 0.5, 0.5
# Kpoint for CBM:                   -0.125, -0.4167, 0.4444
# Dielectric constant, electronic:  5.1608
# Dielectric constant, ionic:       13.4134
# Dielectric constant, total:       18.5742
# Refractive index:                 2.2717
# Atomization energy (eV/atom):     -3.7815
# Relative energy1 (eV/atom):       0.6669
# Relative energy2 (eV/atom):       0.8713
# Volume of the unit cell (A^3):    263.5
# Density (g/cm^3):                 3.9133
# Tool:                             VASP
# Pseudopotential:                  PAW
# Note:                             ENCUT=400eV, k-spacing_relax=0.20/Angstrom, k-spacing_bandgap=0.15/Angstrom
# Created by:                       C.Kim, T.D.Huan, S.Krishnan, R. Ramprasad