data_1
_audit_creation_method   'Generated by vasp2cif'
_cell_length_a    4.36779576752
_cell_length_b    6.58154750482
_cell_length_c    8.79656458687
_cell_angle_alpha    83.1626179552
_cell_angle_beta    105.916545799
_cell_angle_gamma    104.991641437

_symmetry_space_group_name_H-M    'P 1'
loop_
_atom_site_label
_atom_site_type_symbol
_atom_site_fract_x
_atom_site_fract_y
_atom_site_fract_z
_atom_site_occupancy
I1   I   0.301639555644137   0.004758168744139   0.579754422589026   1.0
I2   I   0.610046538653066   0.985455537074429   0.165938877364177   1.0
I3   I   0.765103321992825   0.527847066931379   0.879311787199903   1.0
H4   H   0.252544310457047   0.453794992016007   0.486558877299522   1.0
H5   H   0.272389291924846   0.677928863258721   0.377489653901584   1.0
H6   H   0.582374371877528   0.478796551218629   0.304221544097878   1.0
H7   H   0.248716824600208   0.274718113912627   0.277141139723987   1.0
H8   H   0.240410490577659   0.492703926170144   0.157238264664464   1.0
Pb9   Pb   0.966768064529461   0.028175383897022   0.863844274587862   1.0
N10   N   0.171311588847772   0.518477341484754   0.374985030658991   1.0
N11   N   0.327305640895290   0.437384055292078   0.272976127912592   1.0




# HOIP entry ID:                    1304
# Khazana ID:                       3154
# Organic cation source:            B.Saparov et al., Chem. Rev. 116, 4558 (2016)
# Label:                            Hydrazinium Lead Iodide
# Material class:                   Hybrid organic-inorganic perovskite ( MC_ino )
# Geometry class:                   Bulk crystalline materials ( GC_cry )
# Organic cation chemical formula:  NH2NH3
# Number of atom types:             4
# Total number of atoms:            11
# Atom types:                        H N  Pb I
# Number of each atom:               5 2  1 3
# Bandgap, HSE06 (eV):              2.9407
# Bandgap, GGA (eV):                1.9771
# Kpoint for VBM:                   0, 0.5, 0
# Kpoint for CBM:                   0, 0.5, 0
# Dielectric constant, electronic:  5.1008
# Dielectric constant, ionic:       9.4815
# Dielectric constant, total:       14.5823
# Refractive index:                 2.2585
# Atomization energy (eV/atom):     -3.8006
# Relative energy1 (eV/atom):       0.6479
# Relative energy2 (eV/atom):       0.8523
# Volume of the unit cell (A^3):    234.59
# Density (g/cm^3):                 4.3956
# Tool:                             VASP
# Pseudopotential:                  PAW
# Note:                             ENCUT=400eV, k-spacing_relax=0.20/Angstrom, k-spacing_bandgap=0.15/Angstrom
# Created by:                       C.Kim, T.D.Huan, S.Krishnan, R. Ramprasad