data_1
_audit_creation_method   'Generated by vasp2cif'
_cell_length_a    8.32940573429
_cell_length_b    6.65527052059
_cell_length_c    4.61761999065
_cell_angle_alpha    101.27638602
_cell_angle_beta    76.4816332243
_cell_angle_gamma    101.424598618

_symmetry_space_group_name_H-M    'P 1'
loop_
_atom_site_label
_atom_site_type_symbol
_atom_site_fract_x
_atom_site_fract_y
_atom_site_fract_z
_atom_site_occupancy
I1   I   0.437448101348998   0.087267321663894   0.320664622728543   1.0
I2   I   0.840469066770119   0.947088100725182   0.534575873716328   1.0
I3   I   0.090216827814224   0.477460612458295   0.093686659679143   1.0
H4   H   0.503310911392866   0.479235745454041   0.124008653180716   1.0
H5   H   0.615961035745244   0.706758746984129   0.055942002815961   1.0
H6   H   0.792173035040690   0.440842035895990   0.931684588985135   1.0
H7   H   0.666048784425115   0.312938040412824   0.693003490913433   1.0
H8   H   0.780964964928856   0.544412293055032   0.635125026731274   1.0
Pb9   Pb   0.141388024214798   0.008066198984586   0.921706001149076   1.0
N10   N   0.567355767377606   0.563087592766600   0.955982620555183   1.0
N11   N   0.710983480941522   0.457983311599435   0.799600459545253   1.0




# HOIP entry ID:                    1305
# Khazana ID:                       3155
# Organic cation source:            B.Saparov et al., Chem. Rev. 116, 4558 (2016)
# Label:                            Hydrazinium Lead Iodide
# Material class:                   Hybrid organic-inorganic perovskite ( MC_ino )
# Geometry class:                   Bulk crystalline materials ( GC_cry )
# Organic cation chemical formula:  NH2NH3
# Number of atom types:             4
# Total number of atoms:            11
# Atom types:                        H N  Pb I
# Number of each atom:               5 2  1 3
# Bandgap, HSE06 (eV):              3.2092
# Bandgap, GGA (eV):                2.1969
# Kpoint for VBM:                   0.5, 0.5, 0
# Kpoint for CBM:                   0.5, 0.5, 0
# Dielectric constant, electronic:  4.914
# Dielectric constant, ionic:       9.815
# Dielectric constant, total:       14.729
# Refractive index:                 2.2167
# Atomization energy (eV/atom):     -3.7944
# Relative energy1 (eV/atom):       0.654
# Relative energy2 (eV/atom):       0.8584
# Volume of the unit cell (A^3):    240.94
# Density (g/cm^3):                 4.2798
# Tool:                             VASP
# Pseudopotential:                  PAW
# Note:                             ENCUT=400eV, k-spacing_relax=0.20/Angstrom, k-spacing_bandgap=0.15/Angstrom
# Created by:                       C.Kim, T.D.Huan, S.Krishnan, R. Ramprasad