data_1
_audit_creation_method   'Generated by vasp2cif'
_cell_length_a    8.62892922538
_cell_length_b    4.43840532977
_cell_length_c    6.45167439951
_cell_angle_alpha    89.267131663
_cell_angle_beta    90.0359487135
_cell_angle_gamma    74.3202433249

_symmetry_space_group_name_H-M    'P 1'
loop_
_atom_site_label
_atom_site_type_symbol
_atom_site_fract_x
_atom_site_fract_y
_atom_site_fract_z
_atom_site_occupancy
I1   I   0.438169154978026   0.045098045173598   0.004939036915372   1.0
I2   I   0.106358900220264   0.784313311143472   0.494578507319770   1.0
I3   I   0.849801233018133   0.351175039979111   0.988981929648112   1.0
H4   H   0.542334824029301   0.499115568923415   0.674143804413251   1.0
H5   H   0.475355236154723   0.563246440727348   0.433809956159488   1.0
H6   H   0.781734422347265   0.588336937181799   0.592497125013384   1.0
H7   H   0.738607448539436   0.603543741698692   0.337101974199349   1.0
H8   H   0.638872553481733   0.896806786109651   0.494673949840498   1.0
Pb9   Pb   0.145896880198638   0.692786039895732   0.996374087699097   1.0
N10   N   0.576104766977156   0.463431288715033   0.521688174008542   1.0
N11   N   0.689294580055366   0.656436800452174   0.484161454783174   1.0




# HOIP entry ID:                    1306
# Khazana ID:                       3156
# Organic cation source:            B.Saparov et al., Chem. Rev. 116, 4558 (2016)
# Label:                            Hydrazinium Lead Iodide
# Material class:                   Hybrid organic-inorganic perovskite ( MC_ino )
# Geometry class:                   Bulk crystalline materials ( GC_cry )
# Organic cation chemical formula:  NH2NH3
# Number of atom types:             4
# Total number of atoms:            11
# Atom types:                        H N  Pb I
# Number of each atom:               5 2  1 3
# Bandgap, HSE06 (eV):              2.7929
# Bandgap, GGA (eV):                2.0952
# Kpoint for VBM:                   0.5, 0.0556, 0.5
# Kpoint for CBM:                   0, 0.0556, 0.5
# Dielectric constant, electronic:  5.2006
# Dielectric constant, ionic:       10.8947
# Dielectric constant, total:       16.0953
# Refractive index:                 2.2805
# Atomization energy (eV/atom):     -3.8083
# Relative energy1 (eV/atom):       0.6401
# Relative energy2 (eV/atom):       0.8445
# Volume of the unit cell (A^3):    237.87
# Density (g/cm^3):                 4.335
# Tool:                             VASP
# Pseudopotential:                  PAW
# Note:                             ENCUT=400eV, k-spacing_relax=0.20/Angstrom, k-spacing_bandgap=0.15/Angstrom
# Created by:                       C.Kim, T.D.Huan, S.Krishnan, R. Ramprasad