data_1
_audit_creation_method   'Generated by vasp2cif'
_cell_length_a    8.25512358218
_cell_length_b    4.89593908265
_cell_length_c    6.38671101869
_cell_angle_alpha    90.3048136145
_cell_angle_beta    105.159344301
_cell_angle_gamma    72.9046059754

_symmetry_space_group_name_H-M    'P 1'
loop_
_atom_site_label
_atom_site_type_symbol
_atom_site_fract_x
_atom_site_fract_y
_atom_site_fract_z
_atom_site_occupancy
I1   I   0.489168242698255   0.133272060644451   0.019556164584770   1.0
I2   I   0.069967020951466   0.838551970042722   0.551409055019903   1.0
I3   I   0.908018781203424   0.422719582570458   0.009968283225476   1.0
H4   H   0.509553014784338   0.462620517415999   0.590412609500028   1.0
H5   H   0.527385178258996   0.786757969897607   0.601673578479975   1.0
H6   H   0.797520883814030   0.449798870508921   0.591016555929542   1.0
H7   H   0.687886885499040   0.356125395463671   0.348312368725168   1.0
H8   H   0.709848666360848   0.683720255811274   0.365746861718506   1.0
Pb9   Pb   0.197697393799388   0.783119717574898   0.069264050504920   1.0
N10   N   0.519375653112171   0.626049431589117   0.498565050051234   1.0
N11   N   0.691948279518066   0.520604228480828   0.451085422260498   1.0




# HOIP entry ID:                    1307
# Khazana ID:                       3157
# Organic cation source:            B.Saparov et al., Chem. Rev. 116, 4558 (2016)
# Label:                            Hydrazinium Lead Iodide
# Material class:                   Hybrid organic-inorganic perovskite ( MC_ino )
# Geometry class:                   Bulk crystalline materials ( GC_cry )
# Organic cation chemical formula:  NH2NH3
# Number of atom types:             4
# Total number of atoms:            11
# Atom types:                        H N  Pb I
# Number of each atom:               5 2  1 3
# Bandgap, HSE06 (eV):              3.3463
# Bandgap, GGA (eV):                2.4011
# Kpoint for VBM:                   0, 0, 0.0833
# Kpoint for CBM:                   0.4, 0, 0.0833
# Dielectric constant, electronic:  5.0348
# Dielectric constant, ionic:       10.2732
# Dielectric constant, total:       15.308
# Refractive index:                 2.2438
# Atomization energy (eV/atom):     -3.7955
# Relative energy1 (eV/atom):       0.6529
# Relative energy2 (eV/atom):       0.8574
# Volume of the unit cell (A^3):    237.42
# Density (g/cm^3):                 4.3432
# Tool:                             VASP
# Pseudopotential:                  PAW
# Note:                             ENCUT=400eV, k-spacing_relax=0.20/Angstrom, k-spacing_bandgap=0.15/Angstrom
# Created by:                       C.Kim, T.D.Huan, S.Krishnan, R. Ramprasad