data_1
_audit_creation_method   'Generated by vasp2cif'
_cell_length_a    8.63352969628
_cell_length_b    4.40434545472
_cell_length_c    6.41806924828
_cell_angle_alpha    89.8770365324
_cell_angle_beta    89.9166352283
_cell_angle_gamma    76.3611192776

_symmetry_space_group_name_H-M    'P 1'
loop_
_atom_site_label
_atom_site_type_symbol
_atom_site_fract_x
_atom_site_fract_y
_atom_site_fract_z
_atom_site_occupancy
I1   I   0.222226706762932   0.550477561016116   0.010410696673866   1.0
I2   I   0.958223482576521   0.248673968473675   0.511500255891505   1.0
I3   I   0.633240776232043   0.829021090173292   0.012754955606908   1.0
H4   H   0.560972590536828   0.462736631508918   0.645855462446789   1.0
H5   H   0.568237335561236   0.461931300085666   0.389167182774521   1.0
H6   H   0.300198162111677   0.759744846389779   0.638397112656477   1.0
H7   H   0.420401518074620   0.952692635774419   0.510488521658701   1.0
H8   H   0.305546405440566   0.756525103157820   0.375654459354948   1.0
Pb9   Pb   0.925707526403365   0.181226477722284   0.011677654624968   1.0
N10   N   0.494556844313053   0.453607314813027   0.514096740811020   1.0
N11   N   0.373828651987175   0.755053070885005   0.509366957500347   1.0




# HOIP entry ID:                    1308
# Khazana ID:                       3158
# Organic cation source:            B.Saparov et al., Chem. Rev. 116, 4558 (2016)
# Label:                            Hydrazinium Lead Iodide
# Material class:                   Hybrid organic-inorganic perovskite ( MC_ino )
# Geometry class:                   Bulk crystalline materials ( GC_cry )
# Organic cation chemical formula:  NH2NH3
# Number of atom types:             4
# Total number of atoms:            11
# Atom types:                        H N  Pb I
# Number of each atom:               5 2  1 3
# Bandgap, HSE06 (eV):              2.8554
# Bandgap, GGA (eV):                2.0624
# Kpoint for VBM:                   0.5, 0.0556, 0
# Kpoint for CBM:                   0, 0.0556, 0.5
# Dielectric constant, electronic:  5.2112
# Dielectric constant, ionic:       10.035
# Dielectric constant, total:       15.2462
# Refractive index:                 2.2828
# Atomization energy (eV/atom):     -3.8088
# Relative energy1 (eV/atom):       0.6396
# Relative energy2 (eV/atom):       0.844
# Volume of the unit cell (A^3):    237.16
# Density (g/cm^3):                 4.348
# Tool:                             VASP
# Pseudopotential:                  PAW
# Note:                             ENCUT=400eV, k-spacing_relax=0.20/Angstrom, k-spacing_bandgap=0.15/Angstrom
# Created by:                       C.Kim, T.D.Huan, S.Krishnan, R. Ramprasad