data_1
_audit_creation_method   'Generated by vasp2cif'
_cell_length_a    6.60894455222
_cell_length_b    4.48623472658
_cell_length_c    8.45193418035
_cell_angle_alpha    104.650695305
_cell_angle_beta    86.7235807338
_cell_angle_gamma    85.2672423054

_symmetry_space_group_name_H-M    'P 1'
loop_
_atom_site_label
_atom_site_type_symbol
_atom_site_fract_x
_atom_site_fract_y
_atom_site_fract_z
_atom_site_occupancy
I1   I   0.027503081231444   0.573315344618138   0.716325820303517   1.0
I2   I   0.504886266464467   0.227072941081950   0.031670188939763   1.0
I3   I   0.984054241622395   0.859453747724984   0.304116339115502   1.0
H4   H   0.502673234267839   0.896455172001161   0.386645737629031   1.0
H5   H   0.309849921756886   0.990396687602335   0.528837226556483   1.0
H6   H   0.714664818813226   0.167288525127539   0.556576730020687   1.0
H7   H   0.502576563800410   0.411329123149308   0.569547065128226   1.0
H8   H   0.542153427628122   0.229810109492710   0.720121364463644   1.0
Pb9   Pb   0.005258727867783   0.217329797299655   0.015271638853711   1.0
N10   N   0.464250943297067   0.928589062665012   0.509883767257172   1.0
N11   N   0.560198773250363   0.205959489237308   0.593704121732280   1.0




# HOIP entry ID:                    1309
# Khazana ID:                       3159
# Organic cation source:            B.Saparov et al., Chem. Rev. 116, 4558 (2016)
# Label:                            Hydrazinium Lead Iodide
# Material class:                   Hybrid organic-inorganic perovskite ( MC_ino )
# Geometry class:                   Bulk crystalline materials ( GC_cry )
# Organic cation chemical formula:  NH2NH3
# Number of atom types:             4
# Total number of atoms:            11
# Atom types:                        H N  Pb I
# Number of each atom:               5 2  1 3
# Bandgap, HSE06 (eV):              2.6359
# Bandgap, GGA (eV):                1.8877
# Kpoint for VBM:                   0.5, 0.0556, 0.5
# Kpoint for CBM:                   0.5, 0.5, 0.5
# Dielectric constant, electronic:  5.1639
# Dielectric constant, ionic:       21.0616
# Dielectric constant, total:       26.2255
# Refractive index:                 2.2724
# Atomization energy (eV/atom):     -3.8066
# Relative energy1 (eV/atom):       0.6418
# Relative energy2 (eV/atom):       0.8462
# Volume of the unit cell (A^3):    240.83
# Density (g/cm^3):                 4.2817
# Tool:                             VASP
# Pseudopotential:                  PAW
# Note:                             ENCUT=400eV, k-spacing_relax=0.20/Angstrom, k-spacing_bandgap=0.15/Angstrom
# Created by:                       C.Kim, T.D.Huan, S.Krishnan, R. Ramprasad