data_1
_audit_creation_method   'Generated by vasp2cif'
_cell_length_a    8.60065864785
_cell_length_b    4.45194377351
_cell_length_c    6.46749950869
_cell_angle_alpha    89.4949327028
_cell_angle_beta    90.1859709554
_cell_angle_gamma    74.2585472589

_symmetry_space_group_name_H-M    'P 1'
loop_
_atom_site_label
_atom_site_type_symbol
_atom_site_fract_x
_atom_site_fract_y
_atom_site_fract_z
_atom_site_occupancy
I1   I   0.732437435983581   0.955705531034469   0.987655370193471   1.0
I2   I   0.987096788510758   0.382388407336068   0.493885376512738   1.0
I3   I   0.320411666643851   0.650129264792973   0.006402648031124   1.0
H4   H   0.353190169594805   0.147455531999513   0.444800400005638   1.0
H5   H   0.430173773606417   0.076376747335604   0.679806890352608   1.0
H6   H   0.615179228993819   0.191548533056946   0.334812507952155   1.0
H7   H   0.517374025306173   0.481737317809978   0.495472505032524   1.0
H8   H   0.664369321792517   0.176407926543766   0.587776801718597   1.0
Pb9   Pb   0.028277918907914   0.299570766277529   0.996396768190805   1.0
N10   N   0.457932873262926   0.046865642309279   0.525520712237443   1.0
N11   N   0.568916797397235   0.242514331503862   0.483270019772771   1.0




# HOIP entry ID:                    1310
# Khazana ID:                       3160
# Organic cation source:            B.Saparov et al., Chem. Rev. 116, 4558 (2016)
# Label:                            Hydrazinium Lead Iodide
# Material class:                   Hybrid organic-inorganic perovskite ( MC_ino )
# Geometry class:                   Bulk crystalline materials ( GC_cry )
# Organic cation chemical formula:  NH2NH3
# Number of atom types:             4
# Total number of atoms:            11
# Atom types:                        H N  Pb I
# Number of each atom:               5 2  1 3
# Bandgap, HSE06 (eV):              2.7925
# Bandgap, GGA (eV):                2.0914
# Kpoint for VBM:                   0.5, 0.0556, 0.5
# Kpoint for CBM:                   0, 0.0556, 0.5
# Dielectric constant, electronic:  5.1927
# Dielectric constant, ionic:       11.2369
# Dielectric constant, total:       16.4296
# Refractive index:                 2.2787
# Atomization energy (eV/atom):     -3.8081
# Relative energy1 (eV/atom):       0.6403
# Relative energy2 (eV/atom):       0.8447
# Volume of the unit cell (A^3):    238.34
# Density (g/cm^3):                 4.3264
# Tool:                             VASP
# Pseudopotential:                  PAW
# Note:                             ENCUT=400eV, k-spacing_relax=0.20/Angstrom, k-spacing_bandgap=0.15/Angstrom
# Created by:                       C.Kim, T.D.Huan, S.Krishnan, R. Ramprasad