data_1
_audit_creation_method   'Generated by vasp2cif'
_cell_length_a    8.17425929189
_cell_length_b    6.94990954722
_cell_length_c    4.6841891755
_cell_angle_alpha    72.7900526898
_cell_angle_beta    105.862755986
_cell_angle_gamma    110.126340611

_symmetry_space_group_name_H-M    'P 1'
loop_
_atom_site_label
_atom_site_type_symbol
_atom_site_fract_x
_atom_site_fract_y
_atom_site_fract_z
_atom_site_occupancy
Pb1   Pb   0.821881410291439   0.017441928882519   0.670507631919790   1.0
I2   I   0.492479835766567   0.884732101966286   0.074799254589671   1.0
I3   I   0.128223751046633   0.118738238455812   0.272428869162077   1.0
I4   I   0.828589524598151   0.483925038112879   0.455546465481525   1.0
N5   N   0.449955703944056   0.427022461119215   0.781156735378900   1.0
H6   H   0.339096713396465   0.399907567390805   0.610556580661353   1.0
H7   H   0.443993457520783   0.290171345676122   0.948068633077199   1.0
H8   H   0.563053389633289   0.463495138264442   0.691182571774583   1.0
H9   H   0.454286213802653   0.548176180131939   0.872283257954862   1.0




# HOIP entry ID:                    1311
# Khazana ID:                       3161
# Organic cation source:            T.D.Huan et al., Phys. Rev. B 93,094105(2016)
# Label:                            Ammonium Lead Iodide
# Material class:                   Hybrid organic-inorganic perovskite ( MC_ino )
# Geometry class:                   Bulk crystalline materials ( GC_cry )
# Organic cation chemical formula:  NH4
# Number of atom types:             4
# Total number of atoms:            9
# Atom types:                        H N  Pb I
# Number of each atom:               4 1  1 3
# Bandgap, HSE06 (eV):              3.3145
# Bandgap, GGA (eV):                2.3167
# Kpoint for VBM:                   0.5, 0.5, 0
# Kpoint for CBM:                   0, 0.5, 0
# Dielectric constant, electronic:  4.628
# Dielectric constant, ionic:       7.3978
# Dielectric constant, total:       12.0258
# Refractive index:                 2.1513
# Atomization energy (eV/atom):     -3.5477
# Relative energy1 (eV/atom):       0.6501
# Relative energy2 (eV/atom):       0.8999
# Volume of the unit cell (A^3):    234.27
# Density (g/cm^3):                 4.2952
# Tool:                             VASP
# Pseudopotential:                  PAW
# Note:                             ENCUT=400eV, k-spacing_relax=0.20/Angstrom, k-spacing_bandgap=0.15/Angstrom
# Created by:                       C.Kim, T.D.Huan, S.Krishnan, R. Ramprasad