data_1
_audit_creation_method   'Generated by vasp2cif'
_cell_length_a    6.43563850808
_cell_length_b    6.4373462077
_cell_length_c    6.44477278526
_cell_angle_alpha    82.836113193
_cell_angle_beta    83.0519591335
_cell_angle_gamma    83.0637470153

_symmetry_space_group_name_H-M    'P 1'
loop_
_atom_site_label
_atom_site_type_symbol
_atom_site_fract_x
_atom_site_fract_y
_atom_site_fract_z
_atom_site_occupancy
Pb1   Pb   0.970644141961479   0.970302547401126   0.026371034186674   1.0
I2   I   0.028029596901114   0.852822864968275   0.514092567316133   1.0
I3   I   0.458186865470019   0.029256566946103   0.908158750868154   1.0
I4   I   0.853116489321941   0.457793476975304   0.084644597979604   1.0
N5   N   0.534803055398925   0.535611701967738   0.588374046634897   1.0
H6   H   0.394070867907182   0.625442910372584   0.557486332328935   1.0
H7   H   0.503127884785478   0.396131163130029   0.680567496158915   1.0
H8   H   0.621900566715809   0.501542446677249   0.447533332006238   1.0
H9   H   0.620440531538016   0.619416321561602   0.667721842520450   1.0




# HOIP entry ID:                    1312
# Khazana ID:                       3162
# Organic cation source:            T.D.Huan et al., Phys. Rev. B 93,094105(2016)
# Label:                            Ammonium Lead Iodide
# Material class:                   Hybrid organic-inorganic perovskite ( MC_ino )
# Geometry class:                   Bulk crystalline materials ( GC_cry )
# Organic cation chemical formula:  NH4
# Number of atom types:             4
# Total number of atoms:            9
# Atom types:                        H N  Pb I
# Number of each atom:               4 1  1 3
# Bandgap, HSE06 (eV):              2.8535
# Bandgap, GGA (eV):                2.0452
# Kpoint for VBM:                   0.5, 0.5, 0.3684
# Kpoint for CBM:                   0.3684, 0.3684, 0.3684
# Dielectric constant, electronic:  4.7773
# Dielectric constant, ionic:       11.3636
# Dielectric constant, total:       16.1409
# Refractive index:                 2.1857
# Atomization energy (eV/atom):     -3.5327
# Relative energy1 (eV/atom):       0.665
# Relative energy2 (eV/atom):       0.9149
# Volume of the unit cell (A^3):    261.45
# Density (g/cm^3):                 3.8487
# Tool:                             VASP
# Pseudopotential:                  PAW
# Note:                             ENCUT=400eV, k-spacing_relax=0.20/Angstrom, k-spacing_bandgap=0.15/Angstrom
# Created by:                       C.Kim, T.D.Huan, S.Krishnan, R. Ramprasad