data_1
_audit_creation_method   'Generated by vasp2cif'
_cell_length_a    4.68303023583
_cell_length_b    6.91296444907
_cell_length_c    8.17740116652
_cell_angle_alpha    70.8585677815
_cell_angle_beta    74.1332769359
_cell_angle_gamma    72.6028171013

_symmetry_space_group_name_H-M    'P 1'
loop_
_atom_site_label
_atom_site_type_symbol
_atom_site_fract_x
_atom_site_fract_y
_atom_site_fract_z
_atom_site_occupancy
Pb1   Pb   0.723805172732071   0.041494681039445   0.167955061263697   1.0
I2   I   0.119822972305620   0.921528619752998   0.495430481594646   1.0
I3   I   0.321891752121694   0.143676602166906   0.863366489719411   1.0
I4   I   0.502537854387839   0.509213975478161   0.169321990428578   1.0
N5   N   0.816433409519497   0.463548899910471   0.550597791801984   1.0
H6   H   0.646885852827786   0.435849194985330   0.661231800230780   1.0
H7   H   0.989332984233869   0.328794122020689   0.556250397040614   1.0
H8   H   0.727323658949764   0.494476650018200   0.438687736684202   1.0
H9   H   0.900416342921858   0.588837254627741   0.545478251236055   1.0




# HOIP entry ID:                    1313
# Khazana ID:                       3163
# Organic cation source:            T.D.Huan et al., Phys. Rev. B 93,094105(2016)
# Label:                            Ammonium Lead Iodide
# Material class:                   Hybrid organic-inorganic perovskite ( MC_ino )
# Geometry class:                   Bulk crystalline materials ( GC_cry )
# Organic cation chemical formula:  NH4
# Number of atom types:             4
# Total number of atoms:            9
# Atom types:                        H N  Pb I
# Number of each atom:               4 1  1 3
# Bandgap, HSE06 (eV):              3.2699
# Bandgap, GGA (eV):                2.3811
# Kpoint for VBM:                   0, -0.4167, 0.4167
# Kpoint for CBM:                   0, 0.5, 0
# Dielectric constant, electronic:  4.6699
# Dielectric constant, ionic:       7.6848
# Dielectric constant, total:       12.3547
# Refractive index:                 2.161
# Atomization energy (eV/atom):     -3.5477
# Relative energy1 (eV/atom):       0.6501
# Relative energy2 (eV/atom):       0.8999
# Volume of the unit cell (A^3):    234.1
# Density (g/cm^3):                 4.2983
# Tool:                             VASP
# Pseudopotential:                  PAW
# Note:                             ENCUT=400eV, k-spacing_relax=0.20/Angstrom, k-spacing_bandgap=0.15/Angstrom
# Created by:                       C.Kim, T.D.Huan, S.Krishnan, R. Ramprasad