data_1
_audit_creation_method   'Generated by vasp2cif'
_cell_length_a    6.59984145246
_cell_length_b    6.65534223539
_cell_length_c    6.78297788776
_cell_angle_alpha    87.6887255473
_cell_angle_beta    88.8031002156
_cell_angle_gamma    96.6277541659

_symmetry_space_group_name_H-M    'P 1'
loop_
_atom_site_label
_atom_site_type_symbol
_atom_site_fract_x
_atom_site_fract_y
_atom_site_fract_z
_atom_site_occupancy
C1   C   0.640499121163835   0.338486045689656   0.532082044464147   1.0
C2   C   0.436842085491833   0.581230562145549   0.698731871396468   1.0
C3   C   0.383210363794149   0.512630208620863   0.344996631153258   1.0
H4   H   0.753702978576833   0.361598951319529   0.645959119958263   1.0
H5   H   0.552034719806599   0.596961767954205   0.811402325148023   1.0
H6   H   0.461092354467183   0.481804350260354   0.208287763834065   1.0
H7   H   0.317114712873512   0.654647145412483   0.331059100322570   1.0
H8   H   0.370619027475804   0.722316315615700   0.673779668492855   1.0
H9   H   0.649910845347300   0.647139596181034   0.470023575453240   1.0
H10   H   0.266310772771305   0.387849871011475   0.387330717298198   1.0
H11   H   0.524355462121655   0.213779238752977   0.576172596439257   1.0
H12   H   0.317857801732494   0.458507806934001   0.740501095594311   1.0
H13   H   0.712381027891716   0.311763385516052   0.391510923214071   1.0
I14   I   0.470286435288742   0.031526944954280   0.037169149111150   1.0
I15   I   0.943327469473502   0.504326748973469   0.028050599869822   1.0
I16   I   0.979928106816494   0.940354216905654   0.520135243914901   1.0
N17   N   0.536981316290635   0.529322719170331   0.507697830475188   1.0
Pb18   Pb   0.991645398616356   0.982814124582433   0.037969743860160   1.0




# HOIP entry ID:                    1314
# Khazana ID:                       3164
# Organic cation source:            A. Mancini et al., J. Solid State Chem. 240, 55 (2016)
# Label:                            Trimethylammonium Lead Iodide
# Material class:                   Hybrid organic-inorganic perovskite ( MC_ino )
# Geometry class:                   Bulk crystalline materials ( GC_cry )
# Organic cation chemical formula:  (CH3)3NH
# Number of atom types:             5
# Total number of atoms:            18
# Atom types:                       C H N  Pb I
# Number of each atom:              3 10 1  1 3
# Bandgap, HSE06 (eV):              2.4541
# Bandgap, GGA (eV):                1.5974
# Kpoint for VBM:                   0.4737, 0.4737, 0
# Kpoint for CBM:                   0.5, 0.5, 0.5
# Dielectric constant, electronic:  4.8854
# Dielectric constant, ionic:       19.7503
# Dielectric constant, total:       24.6357
# Refractive index:                 2.2103
# Atomization energy (eV/atom):     -4.3004
# Relative energy1 (eV/atom):       0.1291
# Relative energy2 (eV/atom):       0.2541
# Volume of the unit cell (A^3):    295.61
# Density (g/cm^3):                 3.6403
# Tool:                             VASP
# Pseudopotential:                  PAW
# Note:                             ENCUT=400eV, k-spacing_relax=0.20/Angstrom, k-spacing_bandgap=0.15/Angstrom
# Created by:                       C.Kim, T.D.Huan, S.Krishnan, R. Ramprasad