data_1
_audit_creation_method   'Generated by vasp2cif'
_cell_length_a    6.5523714728
_cell_length_b    6.65966522939
_cell_length_c    6.83846915178
_cell_angle_alpha    90.2233737798
_cell_angle_beta    90.1922731183
_cell_angle_gamma    97.4183854965

_symmetry_space_group_name_H-M    'P 1'
loop_
_atom_site_label
_atom_site_type_symbol
_atom_site_fract_x
_atom_site_fract_y
_atom_site_fract_z
_atom_site_occupancy
C1   C   0.623102928109461   0.335657557242350   0.472785166243504   1.0
C2   C   0.385058973670937   0.534034191490619   0.655899576992240   1.0
C3   C   0.396503073186196   0.548832080446061   0.293623253421941   1.0
H4   H   0.713132035540369   0.330395819468116   0.606072899277713   1.0
H5   H   0.478129660352330   0.520789665812245   0.786281982450205   1.0
H6   H   0.497510635086414   0.546251774027816   0.167726054990098   1.0
H7   H   0.332206434865142   0.691427901997450   0.301750385466612   1.0
H8   H   0.321324258740447   0.677101527375079   0.655474744105369   1.0
H9   H   0.636593121873339   0.648612805308119   0.485033724354906   1.0
H10   H   0.273832996563065   0.421774238415203   0.287559614004891   1.0
H11   H   0.502948919695484   0.206246850796198   0.464124963751828   1.0
H12   H   0.262631988422896   0.406975091712951   0.645361005789148   1.0
H13   H   0.721499104423664   0.341902642708334   0.344552845498278   1.0
I14   I   0.449644732210956   0.036691247953222   0.968392098359999   1.0
I15   I   0.927486469198179   0.507741923473361   0.970682193507542   1.0
I16   I   0.969242784999295   0.945705033886348   0.473895551317973   1.0
N17   N   0.520384994722221   0.526862011330564   0.477669895123981   1.0
Pb18   Pb   0.966916888339604   0.982177636555924   0.000604045343813   1.0




# HOIP entry ID:                    1315
# Khazana ID:                       3165
# Organic cation source:            A. Mancini et al., J. Solid State Chem. 240, 55 (2016)
# Label:                            Trimethylammonium Lead Iodide
# Material class:                   Hybrid organic-inorganic perovskite ( MC_ino )
# Geometry class:                   Bulk crystalline materials ( GC_cry )
# Organic cation chemical formula:  (CH3)3NH
# Number of atom types:             5
# Total number of atoms:            18
# Atom types:                       C H N  Pb I
# Number of each atom:              3 10 1  1 3
# Bandgap, HSE06 (eV):              2.4885
# Bandgap, GGA (eV):                1.6183
# Kpoint for VBM:                   0.4737, 0.4737, 0
# Kpoint for CBM:                   0.5, 0.5, 0.5
# Dielectric constant, electronic:  4.8314
# Dielectric constant, ionic:       12.4174
# Dielectric constant, total:       17.2488
# Refractive index:                 2.1981
# Atomization energy (eV/atom):     -4.3005
# Relative energy1 (eV/atom):       0.129
# Relative energy2 (eV/atom):       0.2539
# Volume of the unit cell (A^3):    295.91
# Density (g/cm^3):                 3.6366
# Tool:                             VASP
# Pseudopotential:                  PAW
# Note:                             ENCUT=400eV, k-spacing_relax=0.20/Angstrom, k-spacing_bandgap=0.15/Angstrom
# Created by:                       C.Kim, T.D.Huan, S.Krishnan, R. Ramprasad