data_1
_audit_creation_method   'Generated by vasp2cif'
_cell_length_a    6.67131240985
_cell_length_b    6.59294787778
_cell_length_c    6.72053629399
_cell_angle_alpha    94.3785096919
_cell_angle_beta    87.7260777149
_cell_angle_gamma    85.3401512989

_symmetry_space_group_name_H-M    'P 1'
loop_
_atom_site_label
_atom_site_type_symbol
_atom_site_fract_x
_atom_site_fract_y
_atom_site_fract_z
_atom_site_occupancy
C1   C   0.352637956828126   0.337991540364243   0.484777949720112   1.0
C2   C   0.542676378754116   0.603677020323254   0.331215581283281   1.0
C3   C   0.647869777225260   0.472391382003693   0.653146738143207   1.0
H4   H   0.218880160775754   0.385951812203295   0.406918911752086   1.0
H5   H   0.412624063854572   0.634864721605929   0.242432228393099   1.0
H6   H   0.588850611687960   0.432431157270138   0.797086339972061   1.0
H7   H   0.732729153669794   0.605943757296906   0.670755569056354   1.0
H8   H   0.615900912505644   0.742553213158004   0.368296529733037   1.0
H9   H   0.377047054742178   0.635519383434513   0.600097174024960   1.0
H10   H   0.741138040664261   0.343169611027193   0.577682570692012   1.0
H11   H   0.447363679898082   0.222296797315927   0.391618409769372   1.0
H12   H   0.649648194802566   0.488225323179321   0.252193987323409   1.0
H13   H   0.311828589005579   0.282153674869178   0.627457617947421   1.0
I14   I   0.521918832615526   0.995576430136992   0.957913981355972   1.0
I15   I   0.059846490634577   0.484489403446517   0.993966579991977   1.0
I16   I   0.026783491580616   0.922622012565853   0.502759555323664   1.0
N17   N   0.472368514873679   0.521502684254138   0.523922757936866   1.0
Pb18   Pb   0.997348095881648   0.976110075544916   0.983757517581218   1.0




# HOIP entry ID:                    1316
# Khazana ID:                       3166
# Organic cation source:            A. Mancini et al., J. Solid State Chem. 240, 55 (2016)
# Label:                            Trimethylammonium Lead Iodide
# Material class:                   Hybrid organic-inorganic perovskite ( MC_ino )
# Geometry class:                   Bulk crystalline materials ( GC_cry )
# Organic cation chemical formula:  (CH3)3NH
# Number of atom types:             5
# Total number of atoms:            18
# Atom types:                       C H N  Pb I
# Number of each atom:              3 10 1  1 3
# Bandgap, HSE06 (eV):              2.572
# Bandgap, GGA (eV):                1.6891
# Kpoint for VBM:                   0.4474, 0.5, 0
# Kpoint for CBM:                   0.5, 0.5, 0.5
# Dielectric constant, electronic:  4.9793
# Dielectric constant, ionic:       19.0146
# Dielectric constant, total:       23.9938
# Refractive index:                 2.2314
# Atomization energy (eV/atom):     -4.2999
# Relative energy1 (eV/atom):       0.1296
# Relative energy2 (eV/atom):       0.2545
# Volume of the unit cell (A^3):    293.44
# Density (g/cm^3):                 3.6672
# Tool:                             VASP
# Pseudopotential:                  PAW
# Note:                             ENCUT=400eV, k-spacing_relax=0.20/Angstrom, k-spacing_bandgap=0.15/Angstrom
# Created by:                       C.Kim, T.D.Huan, S.Krishnan, R. Ramprasad