data_1
_audit_creation_method   'Generated by vasp2cif'
_cell_length_a    6.69376931665
_cell_length_b    6.59527461311
_cell_length_c    6.6867182055
_cell_angle_alpha    94.1706345349
_cell_angle_beta    92.9218514347
_cell_angle_gamma    94.4388837074

_symmetry_space_group_name_H-M    'P 1'
loop_
_atom_site_label
_atom_site_type_symbol
_atom_site_fract_x
_atom_site_fract_y
_atom_site_fract_z
_atom_site_occupancy
C1   C   0.479679143168540   0.336368017003711   0.642336811951013   1.0
C2   C   0.343482554647232   0.618090699590910   0.459000888670072   1.0
C3   C   0.649350942376391   0.460040509045531   0.344500889792602   1.0
H4   H   0.411896938538347   0.389815214149294   0.779102782013203   1.0
H5   H   0.259413755339512   0.650632481415469   0.590726885357885   1.0
H6   H   0.791493303187531   0.409164483243324   0.399814274373198   1.0
H7   H   0.673627547062981   0.592724982609265   0.258992333540879   1.0
H8   H   0.389820087946659   0.757916016015743   0.390658896151447   1.0
H9   H   0.618629237238346   0.624924024230266   0.616523628000054   1.0
H10   H   0.562446767936147   0.336213827127409   0.253647021076754   1.0
H11   H   0.373329420032108   0.230300664577753   0.550199065606422   1.0
H12   H   0.254989279643110   0.512376557883870   0.349377432290657   1.0
H13   H   0.617460528067342   0.266200779329045   0.677230160449650   1.0
I14   I   0.951398224474580   0.982209892216919   0.480967788971954   1.0
I15   I   0.993110032488610   0.479625819665496   0.934555823356763   1.0
I16   I   0.501208925902648   0.920607884245826   0.972714034309173   1.0
N17   N   0.530123011164834   0.518399492954082   0.523201024422356   1.0
Pb18   Pb   0.982660300785063   0.972958654696091   0.004710259665895   1.0




# HOIP entry ID:                    1317
# Khazana ID:                       3167
# Organic cation source:            A. Mancini et al., J. Solid State Chem. 240, 55 (2016)
# Label:                            Trimethylammonium Lead Iodide
# Material class:                   Hybrid organic-inorganic perovskite ( MC_ino )
# Geometry class:                   Bulk crystalline materials ( GC_cry )
# Organic cation chemical formula:  (CH3)3NH
# Number of atom types:             5
# Total number of atoms:            18
# Atom types:                       C H N  Pb I
# Number of each atom:              3 10 1  1 3
# Bandgap, HSE06 (eV):              2.6247
# Bandgap, GGA (eV):                1.7386
# Kpoint for VBM:                   0.3684, 0.5, 0
# Kpoint for CBM:                   0.5, 0.5, 0.5
# Dielectric constant, electronic:  5.0044
# Dielectric constant, ionic:       21.0353
# Dielectric constant, total:       26.0396
# Refractive index:                 2.237
# Atomization energy (eV/atom):     -4.2998
# Relative energy1 (eV/atom):       0.1297
# Relative energy2 (eV/atom):       0.2546
# Volume of the unit cell (A^3):    293.06
# Density (g/cm^3):                 3.672
# Tool:                             VASP
# Pseudopotential:                  PAW
# Note:                             ENCUT=400eV, k-spacing_relax=0.20/Angstrom, k-spacing_bandgap=0.15/Angstrom
# Created by:                       C.Kim, T.D.Huan, S.Krishnan, R. Ramprasad