data_1
_audit_creation_method   'Generated by vasp2cif'
_cell_length_a    6.74515496312
_cell_length_b    6.71049009426
_cell_length_c    6.79221554666
_cell_angle_alpha    81.4335533582
_cell_angle_beta    86.5328481022
_cell_angle_gamma    93.9236588031

_symmetry_space_group_name_H-M    'P 1'
loop_
_atom_site_label
_atom_site_type_symbol
_atom_site_fract_x
_atom_site_fract_y
_atom_site_fract_z
_atom_site_occupancy
C1   C   0.717758406560495   0.503211688119087   0.562197017262986   1.0
C2   C   0.413757022158965   0.687381468341541   0.602704253318483   1.0
C3   C   0.445684143881765   0.472339188284320   0.333897334455808   1.0
H4   H   0.790942032079078   0.605947240413418   0.649316911830954   1.0
H5   H   0.348644852656971   0.558524845479455   0.709569625523794   1.0
H6   H   0.376082987681521   0.341721725088402   0.435854398672277   1.0
H7   H   0.552936177914268   0.424894069360006   0.227473767904710   1.0
H8   H   0.497728308962970   0.793221803208194   0.679484429641101   1.0
H9   H   0.620386082347084   0.733024129432841   0.358783148165398   1.0
H10   H   0.332955409522920   0.555547661134118   0.256415936237218   1.0
H11   H   0.647694700519202   0.369561757251514   0.659121983253118   1.0
H12   H   0.298038932196282   0.762233037615399   0.521735541791998   1.0
H13   H   0.822753527912141   0.460740601752103   0.450891107032003   1.0
I14   I   0.501526023183757   0.046399724705775   0.015909310366287   1.0
I15   I   0.979184824470560   0.594784103949942   0.023976253853533   1.0
I16   I   0.971136201093988   0.038756899068456   0.470778916711881   1.0
N17   N   0.555053613670898   0.609431816338856   0.455944371662147   1.0
Pb18   Pb   0.027786753187222   0.070368240456538   0.003575692316284   1.0




# HOIP entry ID:                    1318
# Khazana ID:                       3168
# Organic cation source:            A. Mancini et al., J. Solid State Chem. 240, 55 (2016)
# Label:                            Trimethylammonium Lead Iodide
# Material class:                   Hybrid organic-inorganic perovskite ( MC_ino )
# Geometry class:                   Bulk crystalline materials ( GC_cry )
# Organic cation chemical formula:  (CH3)3NH
# Number of atom types:             5
# Total number of atoms:            18
# Atom types:                       C H N  Pb I
# Number of each atom:              3 10 1  1 3
# Bandgap, HSE06 (eV):              2.8126
# Bandgap, GGA (eV):                1.7666
# Kpoint for VBM:                   0.5, 0.5, 0.5
# Kpoint for CBM:                   0.4474, 0.5, 0.4474
# Dielectric constant, electronic:  4.6532
# Dielectric constant, ionic:       13.7688
# Dielectric constant, total:       18.422
# Refractive index:                 2.1571
# Atomization energy (eV/atom):     -4.2947
# Relative energy1 (eV/atom):       0.1349
# Relative energy2 (eV/atom):       0.2598
# Volume of the unit cell (A^3):    302.52
# Density (g/cm^3):                 3.5572
# Tool:                             VASP
# Pseudopotential:                  PAW
# Note:                             ENCUT=400eV, k-spacing_relax=0.20/Angstrom, k-spacing_bandgap=0.15/Angstrom
# Created by:                       C.Kim, T.D.Huan, S.Krishnan, R. Ramprasad