data_1
_audit_creation_method   'Generated by vasp2cif'
_cell_length_a    6.67757414297
_cell_length_b    6.70277500263
_cell_length_c    6.58609749426
_cell_angle_alpha    93.6263277055
_cell_angle_beta    94.6348646925
_cell_angle_gamma    93.0723177272

_symmetry_space_group_name_H-M    'P 1'
loop_
_atom_site_label
_atom_site_type_symbol
_atom_site_fract_x
_atom_site_fract_y
_atom_site_fract_z
_atom_site_occupancy
C1   C   0.646927056415954   0.619085009863483   0.410623269182842   1.0
C2   C   0.349613006557249   0.745124185979861   0.575447634274568   1.0
C3   C   0.508622268026969   0.439987930387801   0.695746242806770   1.0
H4   H   0.725014337236857   0.484290445218548   0.377522286166211   1.0
H5   H   0.326302700228574   0.832507502293168   0.443073665183391   1.0
H6   H   0.568534879730450   0.300458074100021   0.640789313485932   1.0
H7   H   0.371196150670933   0.411272797136448   0.769392606380073   1.0
H8   H   0.206547763357598   0.695256974371873   0.629368865793005   1.0
H9   H   0.365100307420541   0.473649452731045   0.409221485301380   1.0
H10   H   0.621350801431326   0.526760050666006   0.799525141579416   1.0
H11   H   0.600810832778059   0.688873879858200   0.270717682270266   1.0
H12   H   0.442522058593610   0.831610464653032   0.697867210488248   1.0
H13   H   0.741365373636100   0.725248794792293   0.514391617262618   1.0
I14   I   0.994454618869490   0.145969269437330   0.556459057848691   1.0
I15   I   0.042176266040535   0.601172088443526   0.054061909046069   1.0
I16   I   0.489856715388676   0.109586431777537   0.112135909661951   1.0
N17   N   0.459850634205033   0.562140034471071   0.514310144959367   1.0
Pb18   Pb   0.008564229412023   0.077526613818776   0.056995958309209   1.0




# HOIP entry ID:                    1319
# Khazana ID:                       3169
# Organic cation source:            A. Mancini et al., J. Solid State Chem. 240, 55 (2016)
# Label:                            Trimethylammonium Lead Iodide
# Material class:                   Hybrid organic-inorganic perovskite ( MC_ino )
# Geometry class:                   Bulk crystalline materials ( GC_cry )
# Organic cation chemical formula:  (CH3)3NH
# Number of atom types:             5
# Total number of atoms:            18
# Atom types:                       C H N  Pb I
# Number of each atom:              3 10 1  1 3
# Bandgap, HSE06 (eV):              2.5956
# Bandgap, GGA (eV):                1.8033
# Kpoint for VBM:                   0.5, 0.5, 0.4211
# Kpoint for CBM:                   0.5, 0.5, 0.4211
# Dielectric constant, electronic:  5.0297
# Dielectric constant, ionic:       24.6757
# Dielectric constant, total:       29.7054
# Refractive index:                 2.2427
# Atomization energy (eV/atom):     -4.2998
# Relative energy1 (eV/atom):       0.1297
# Relative energy2 (eV/atom):       0.2547
# Volume of the unit cell (A^3):    292.72
# Density (g/cm^3):                 3.6762
# Tool:                             VASP
# Pseudopotential:                  PAW
# Note:                             ENCUT=400eV, k-spacing_relax=0.20/Angstrom, k-spacing_bandgap=0.15/Angstrom
# Created by:                       C.Kim, T.D.Huan, S.Krishnan, R. Ramprasad