data_1
_audit_creation_method   'Generated by vasp2cif'
_cell_length_a    6.58497726827
_cell_length_b    6.80056911677
_cell_length_c    6.66922812859
_cell_angle_alpha    91.5107834846
_cell_angle_beta    82.8668677147
_cell_angle_gamma    89.0173638009

_symmetry_space_group_name_H-M    'P 1'
loop_
_atom_site_label
_atom_site_type_symbol
_atom_site_fract_x
_atom_site_fract_y
_atom_site_fract_z
_atom_site_occupancy
C1   C   0.369589128798779   0.595017794824230   0.330273838366679   1.0
C2   C   0.608897537455469   0.779627560555383   0.526566770040205   1.0
C3   C   0.565968122289704   0.421074964926035   0.573810959190972   1.0
H4   H   0.292882526539010   0.734096653673149   0.308183408737804   1.0
H5   H   0.734801958725228   0.747445059643319   0.407203374920925   1.0
H6   H   0.455532847674725   0.303482082745972   0.576606894577353   1.0
H7   H   0.621900396835223   0.439064252579314   0.720046150979421   1.0
H8   H   0.528731867500518   0.915056819439940   0.496628327335841   1.0
H9   H   0.341511894847997   0.638392586431699   0.641835963606340   1.0
H10   H   0.693256321820279   0.391745371436237   0.455404164826071   1.0
H11   H   0.493591842407447   0.564014508258751   0.208618197013315   1.0
H12   H   0.664561076345244   0.788704053428020   0.673396328218161   1.0
H13   H   0.261349003079545   0.475441656667620   0.341472587325022   1.0
I14   I   0.533082222427637   0.092579623606177   0.038509242599261   1.0
I15   I   0.017668625148666   0.600436759309545   0.941834165407521   1.0
I16   I   0.056093643294297   0.096039031508305   0.505119903836757   1.0
N17   N   0.461344054236214   0.611332482460931   0.527263609289442   1.0
Pb18   Pb   0.011596930574015   0.080238738505358   0.981866113729019   1.0




# HOIP entry ID:                    1320
# Khazana ID:                       3170
# Organic cation source:            A. Mancini et al., J. Solid State Chem. 240, 55 (2016)
# Label:                            Trimethylammonium Lead Iodide
# Material class:                   Hybrid organic-inorganic perovskite ( MC_ino )
# Geometry class:                   Bulk crystalline materials ( GC_cry )
# Organic cation chemical formula:  (CH3)3NH
# Number of atom types:             5
# Total number of atoms:            18
# Atom types:                       C H N  Pb I
# Number of each atom:              3 10 1  1 3
# Bandgap, HSE06 (eV):              2.4654
# Bandgap, GGA (eV):                1.7448
# Kpoint for VBM:                   0.5, 0.5, 0.5
# Kpoint for CBM:                   0.5, 0.5, 0.5
# Dielectric constant, electronic:  4.8425
# Dielectric constant, ionic:       15.7537
# Dielectric constant, total:       20.5962
# Refractive index:                 2.2006
# Atomization energy (eV/atom):     -4.3005
# Relative energy1 (eV/atom):       0.129
# Relative energy2 (eV/atom):       0.2539
# Volume of the unit cell (A^3):    296.18
# Density (g/cm^3):                 3.6333
# Tool:                             VASP
# Pseudopotential:                  PAW
# Note:                             ENCUT=400eV, k-spacing_relax=0.20/Angstrom, k-spacing_bandgap=0.15/Angstrom
# Created by:                       C.Kim, T.D.Huan, S.Krishnan, R. Ramprasad