data_1
_audit_creation_method   'Generated by vasp2cif'
_cell_length_a    9.29671215756
_cell_length_b    4.97729411471
_cell_length_c    6.50542162943
_cell_angle_alpha    95.9855551888
_cell_angle_beta    95.3400997782
_cell_angle_gamma    94.011306718

_symmetry_space_group_name_H-M    'P 1'
loop_
_atom_site_label
_atom_site_type_symbol
_atom_site_fract_x
_atom_site_fract_y
_atom_site_fract_z
_atom_site_occupancy
C1   C   0.476666736017599   0.533683067155465   0.747540605545751   1.0
C2   C   0.485445483194184   0.831645377288254   0.464066215534068   1.0
C3   C   0.657326902861087   0.475374716873539   0.481932341872415   1.0
H4   H   0.430531984161860   0.691389831151838   0.844253364045791   1.0
H5   H   0.432635368052139   0.982443345056190   0.557254770103150   1.0
H6   H   0.715071682782771   0.351776354376319   0.586057042143267   1.0
H7   H   0.734854368376844   0.593415054067769   0.405019907455838   1.0
H8   H   0.558249229890599   0.923838315441728   0.364866117814586   1.0
H9   H   0.647535251621910   0.803804723314279   0.704713656159065   1.0
H10   H   0.580426983684170   0.352337198219388   0.367701160496196   1.0
H11   H   0.389876392711472   0.408794713701752   0.650475675599104   1.0
H12   H   0.403687775251811   0.691454290256139   0.370614260088864   1.0
H13   H   0.542415860620387   0.412448378822177   0.843501799854565   1.0
I14   I   0.060221815736369   0.729535350133247   0.543255102242313   1.0
I15   I   0.279873082710942   0.163792153274251   0.086823802849601   1.0
I16   I   0.783386046547562   0.081589974458098   0.027744645595980   1.0
N17   N   0.573019471778416   0.670691680544955   0.607437141994453   1.0
Pb18   Pb   0.040095563999842   0.619395475864579   0.052512390605045   1.0




# HOIP entry ID:                    1322
# Khazana ID:                       3172
# Organic cation source:            A. Mancini et al., J. Solid State Chem. 240, 55 (2016)
# Label:                            Trimethylammonium Lead Iodide
# Material class:                   Hybrid organic-inorganic perovskite ( MC_ino )
# Geometry class:                   Bulk crystalline materials ( GC_cry )
# Organic cation chemical formula:  (CH3)3NH
# Number of atom types:             5
# Total number of atoms:            18
# Atom types:                       C H N  Pb I
# Number of each atom:              3 10 1  1 3
# Bandgap, HSE06 (eV):              3.0741
# Bandgap, GGA (eV):                2.1449
# Kpoint for VBM:                   0.5, 0, 0
# Kpoint for CBM:                   0.5, 0, 0.5
# Dielectric constant, electronic:  4.4006
# Dielectric constant, ionic:       10.687
# Dielectric constant, total:       15.0877
# Refractive index:                 2.0978
# Atomization energy (eV/atom):     -4.2954
# Relative energy1 (eV/atom):       0.1341
# Relative energy2 (eV/atom):       0.2591
# Volume of the unit cell (A^3):    297.12
# Density (g/cm^3):                 3.6218
# Tool:                             VASP
# Pseudopotential:                  PAW
# Note:                             ENCUT=400eV, k-spacing_relax=0.20/Angstrom, k-spacing_bandgap=0.15/Angstrom
# Created by:                       C.Kim, T.D.Huan, S.Krishnan, R. Ramprasad