data_1
_audit_creation_method   'Generated by vasp2cif'
_cell_length_a    7.04784913935
_cell_length_b    4.88192816834
_cell_length_c    8.78502788298
_cell_angle_alpha    90.5469016496
_cell_angle_beta    94.4957010206
_cell_angle_gamma    75.4554929928

_symmetry_space_group_name_H-M    'P 1'
loop_
_atom_site_label
_atom_site_type_symbol
_atom_site_fract_x
_atom_site_fract_y
_atom_site_fract_z
_atom_site_occupancy
C1   C   0.522493363866396   0.872204308415931   0.415995541793713   1.0
C2   C   0.428152400579769   0.911394502481855   0.687190630387967   1.0
C3   C   0.288059386833254   0.609975765727384   0.503423057350076   1.0
H4   H   0.575249367199113   0.062015191582660   0.434373279690043   1.0
H5   H   0.306362321805174   0.916961860189062   0.756571795660413   1.0
H6   H   0.244344003154225   0.586166777166042   0.383326737035652   1.0
H7   H   0.163992454447836   0.628629670350193   0.573191531986637   1.0
H8   H   0.551002339754262   0.730928553298078   0.718684639896011   1.0
H9   H   0.241696606653711   0.040720543779123   0.487843503931529   1.0
H10   H   0.410581113269167   0.435311387444635   0.543230556315322   1.0
H11   H   0.642123333491554   0.685083141063203   0.443866911408065   1.0
H12   H   0.475142826129869   0.106699418851996   0.699234172144962   1.0
H13   H   0.462039885420168   0.864232207213554   0.298385982154095   1.0
I14   I   0.929351460174786   0.198478031300262   0.270378369550976   1.0
I15   I   0.888525699104932   0.211945089040867   0.739989257685863   1.0
I16   I   0.375788727227672   0.471709057643743   0.032290183141953   1.0
N17   N   0.361322273412775   0.874985051680419   0.521598099209115   1.0
Pb18   Pb   0.927462437475434   0.683239442770990   0.008545750657795   1.0




# HOIP entry ID:                    1325
# Khazana ID:                       3175
# Organic cation source:            A. Mancini et al., J. Solid State Chem. 240, 55 (2016)
# Label:                            Trimethylammonium Lead Iodide
# Material class:                   Hybrid organic-inorganic perovskite ( MC_ino )
# Geometry class:                   Bulk crystalline materials ( GC_cry )
# Organic cation chemical formula:  (CH3)3NH
# Number of atom types:             5
# Total number of atoms:            18
# Atom types:                       C H N  Pb I
# Number of each atom:              3 10 1  1 3
# Bandgap, HSE06 (eV):              3.3088
# Bandgap, GGA (eV):                2.4416
# Kpoint for VBM:                   0, 0.125, 0.5
# Kpoint for CBM:                   0.5, 0, 0.5
# Dielectric constant, electronic:  4.1587
# Dielectric constant, ionic:       5.9789
# Dielectric constant, total:       10.1376
# Refractive index:                 2.0393
# Atomization energy (eV/atom):     -4.293
# Relative energy1 (eV/atom):       0.1365
# Relative energy2 (eV/atom):       0.2614
# Volume of the unit cell (A^3):    291.66
# Density (g/cm^3):                 3.6896
# Tool:                             VASP
# Pseudopotential:                  PAW
# Note:                             ENCUT=400eV, k-spacing_relax=0.20/Angstrom, k-spacing_bandgap=0.15/Angstrom
# Created by:                       C.Kim, T.D.Huan, S.Krishnan, R. Ramprasad