data_1
_audit_creation_method   'Generated by vasp2cif'
_cell_length_a    6.66635982656
_cell_length_b    6.504721866
_cell_length_c    6.57367324457
_cell_angle_alpha    89.9914178842
_cell_angle_beta    89.5234792786
_cell_angle_gamma    89.3171591178

_symmetry_space_group_name_H-M    'P 1'
loop_
_atom_site_label
_atom_site_type_symbol
_atom_site_fract_x
_atom_site_fract_y
_atom_site_fract_z
_atom_site_occupancy
I1   I   0.010023115954525   0.991888987000863   0.560281895384065   1.0
I2   I   0.513628491089058   0.061730825884759   0.061282975136756   1.0
I3   I   0.025936051276688   0.534315854249421   0.060501426639668   1.0
H4   H   0.382087318781956   0.820639219103420   0.566551195644848   1.0
H5   H   0.662476947340622   0.571665459150793   0.315851895345993   1.0
H6   H   0.634067055627206   0.835596473160521   0.559498908546146   1.0
H7   H   0.352506338939875   0.327365422805464   0.565489899214391   1.0
H8   H   0.673305385278603   0.569203141862438   0.797619871404059   1.0
H9   H   0.407473810920464   0.584598416265798   0.839965395443379   1.0
H10   H   0.395080947097171   0.587534574431544   0.290772367712982   1.0
H11   H   0.616738727749279   0.280896913072844   0.557140846158269   1.0
C12   C   0.526291626273583   0.565847560318083   0.727040688623070   1.0
C13   C   0.518922064123288   0.567598412117114   0.395718611954273   1.0
C14   C   0.499623942700701   0.399125002134362   0.561319410656331   1.0
Pb15   Pb   0.995474637487654   0.047608243074627   0.059928180898098   1.0
N16   N   0.514403539359392   0.736435495367957   0.562446431237696   1.0




# HOIP entry ID:                    1326
# Khazana ID:                       3176
# Organic cation source:            B. Zhou et al., Angew. Chem. Int. Ed. 50, 11441 (2011)
# Label:                            Azetidinium Lead Iodide
# Material class:                   Hybrid organic-inorganic perovskite ( MC_ino )
# Geometry class:                   Bulk crystalline materials ( GC_cry )
# Organic cation chemical formula:  C3H6N2
# Number of atom types:             5
# Total number of atoms:            16
# Atom types:                       C H N  Pb I
# Number of each atom:              3 8 1  1 3
# Bandgap, HSE06 (eV):              2.3983
# Bandgap, GGA (eV):                1.5501
# Kpoint for VBM:                   0.5, 0.5, 0.5
# Kpoint for CBM:                   0.5, 0.5, 0.5
# Dielectric constant, electronic:  5.1597
# Dielectric constant, ionic:       22.2201
# Dielectric constant, total:       27.3798
# Refractive index:                 2.2715
# Atomization energy (eV/atom):     -4.3473
# Relative energy1 (eV/atom):       0.1821
# Relative energy2 (eV/atom):       0.3226
# Volume of the unit cell (A^3):    285.02
# Density (g/cm^3):                 3.7638
# Tool:                             VASP
# Pseudopotential:                  PAW
# Note:                             ENCUT=400eV, k-spacing_relax=0.20/Angstrom, k-spacing_bandgap=0.15/Angstrom
# Created by:                       C.Kim, T.D.Huan, S.Krishnan, R. Ramprasad