data_1
_audit_creation_method   'Generated by vasp2cif'
_cell_length_a    6.57070131099
_cell_length_b    6.52949808554
_cell_length_c    6.61114940321
_cell_angle_alpha    92.7753425628
_cell_angle_beta    86.6161111377
_cell_angle_gamma    90.1890612583

_symmetry_space_group_name_H-M    'P 1'
loop_
_atom_site_label
_atom_site_type_symbol
_atom_site_fract_x
_atom_site_fract_y
_atom_site_fract_z
_atom_site_occupancy
I1   I   0.465009906995121   0.057029096730709   0.968286706954160   1.0
I2   I   0.972811597694815   0.111072323957892   0.456013267778459   1.0
I3   I   0.972778663714600   0.601770830942456   0.956373087861493   1.0
H4   H   0.482471942821846   0.871005031203360   0.324151777125898   1.0
H5   H   0.709024480657781   0.676718016780278   0.623469438871886   1.0
H6   H   0.422138561932840   0.880234755453792   0.575091113733585   1.0
H7   H   0.499219463047858   0.316631903119031   0.421000738174115   1.0
H8   H   0.164898089215761   0.629946233288720   0.511377994807880   1.0
H9   H   0.285823643005123   0.574775476496299   0.264476192249958   1.0
H10   H   0.732631578183309   0.612862407634616   0.355973668801852   1.0
H11   H   0.428156365990262   0.422526186789533   0.668996063345055   1.0
C12   C   0.309088476316823   0.601529158289132   0.425325854182041   1.0
C13   C   0.628502799486633   0.629093938337974   0.490185578165288   1.0
C14   C   0.465936864555268   0.457691807335436   0.511454839369208   1.0
Pb15   Pb   0.957526436578199   0.118360520715790   0.945824802501981   1.0
N16   N   0.458931129803787   0.784052312925020   0.449928876077067   1.0




# HOIP entry ID:                    1327
# Khazana ID:                       3177
# Organic cation source:            B. Zhou et al., Angew. Chem. Int. Ed. 50, 11441 (2011)
# Label:                            Azetidinium Lead Iodide
# Material class:                   Hybrid organic-inorganic perovskite ( MC_ino )
# Geometry class:                   Bulk crystalline materials ( GC_cry )
# Organic cation chemical formula:  C3H6N2
# Number of atom types:             5
# Total number of atoms:            16
# Atom types:                       C H N  Pb I
# Number of each atom:              3 8 1  1 3
# Bandgap, HSE06 (eV):              2.3404
# Bandgap, GGA (eV):                1.5159
# Kpoint for VBM:                   0.5, 0.5, 0.5
# Kpoint for CBM:                   0.5, 0.5, 0.5
# Dielectric constant, electronic:  5.1973
# Dielectric constant, ionic:       30.1966
# Dielectric constant, total:       35.3938
# Refractive index:                 2.2798
# Atomization energy (eV/atom):     -4.3465
# Relative energy1 (eV/atom):       0.1829
# Relative energy2 (eV/atom):       0.3234
# Volume of the unit cell (A^3):    282.81
# Density (g/cm^3):                 3.7932
# Tool:                             VASP
# Pseudopotential:                  PAW
# Note:                             ENCUT=400eV, k-spacing_relax=0.20/Angstrom, k-spacing_bandgap=0.15/Angstrom
# Created by:                       C.Kim, T.D.Huan, S.Krishnan, R. Ramprasad