data_1
_audit_creation_method   'Generated by vasp2cif'
_cell_length_a    6.52767366823
_cell_length_b    6.60701440932
_cell_length_c    6.5810691188
_cell_angle_alpha    93.7682009287
_cell_angle_beta    89.9706760519
_cell_angle_gamma    95.4524256664

_symmetry_space_group_name_H-M    'P 1'
loop_
_atom_site_label
_atom_site_type_symbol
_atom_site_fract_x
_atom_site_fract_y
_atom_site_fract_z
_atom_site_occupancy
I1   I   0.482718538153328   0.047629341702738   0.037620676427338   1.0
I2   I   0.974430045877526   0.030102063771032   0.492866298239008   1.0
I3   I   0.018633718514145   0.542565661206822   0.000505865662852   1.0
H4   H   0.439397550928334   0.497622104356289   0.210965097622292   1.0
H5   H   0.801948723058480   0.570621755903289   0.471286683709863   1.0
H6   H   0.552341233349168   0.727148433768491   0.287165672785868   1.0
H7   H   0.457722550298165   0.370164065624678   0.723370667753663   1.0
H8   H   0.316513208056328   0.754062623380456   0.555973698145124   1.0
H9   H   0.210200620078062   0.498725473071573   0.486276920465251   1.0
H10   H   0.660306419069208   0.328687833038039   0.407616219494713   1.0
H11   H   0.577847010027881   0.621712125842350   0.774018350707607   1.0
C12   C   0.350712225648294   0.597751161074150   0.520204449733768   1.0
C13   C   0.651277689771497   0.484690667150346   0.467693023220455   1.0
C14   C   0.511189399174150   0.511677845040715   0.655842984342968   1.0
Pb15   Pb   0.977169731464137   0.060357677292465   0.971637230671512   1.0
N16   N   0.498841336531356   0.586461167776591   0.335526161017732   1.0




# HOIP entry ID:                    1328
# Khazana ID:                       3178
# Organic cation source:            B. Zhou et al., Angew. Chem. Int. Ed. 50, 11441 (2011)
# Label:                            Azetidinium Lead Iodide
# Material class:                   Hybrid organic-inorganic perovskite ( MC_ino )
# Geometry class:                   Bulk crystalline materials ( GC_cry )
# Organic cation chemical formula:  C3H6N2
# Number of atom types:             5
# Total number of atoms:            16
# Atom types:                       C H N  Pb I
# Number of each atom:              3 8 1  1 3
# Bandgap, HSE06 (eV):              2.483
# Bandgap, GGA (eV):                1.7818
# Kpoint for VBM:                   0.5, 0.5, 0.5
# Kpoint for CBM:                   0.4737, 0.4737, 0.4737
# Dielectric constant, electronic:  5.103
# Dielectric constant, ionic:       16.3736
# Dielectric constant, total:       21.4765
# Refractive index:                 2.259
# Atomization energy (eV/atom):     -4.3446
# Relative energy1 (eV/atom):       0.1848
# Relative energy2 (eV/atom):       0.3253
# Volume of the unit cell (A^3):    281.93
# Density (g/cm^3):                 3.8051
# Tool:                             VASP
# Pseudopotential:                  PAW
# Note:                             ENCUT=400eV, k-spacing_relax=0.20/Angstrom, k-spacing_bandgap=0.15/Angstrom
# Created by:                       C.Kim, T.D.Huan, S.Krishnan, R. Ramprasad