data_1
_audit_creation_method   'Generated by vasp2cif'
_cell_length_a    6.57198471803
_cell_length_b    6.53884139519
_cell_length_c    6.5917739789
_cell_angle_alpha    87.5974948064
_cell_angle_beta    84.1711560344
_cell_angle_gamma    92.4787228321

_symmetry_space_group_name_H-M    'P 1'
loop_
_atom_site_label
_atom_site_type_symbol
_atom_site_fract_x
_atom_site_fract_y
_atom_site_fract_z
_atom_site_occupancy
I1   I   0.008582843808313   0.055230776330596   0.532626070985927   1.0
I2   I   0.531249850711340   0.057647954217714   0.049678648096460   1.0
I3   I   0.053913564971161   0.574495296414668   0.011145368200417   1.0
H4   H   0.378762715607131   0.801477145995456   0.693012479405127   1.0
H5   H   0.401671517863036   0.644387973553769   0.290556833735778   1.0
H6   H   0.569487286307726   0.859766344086516   0.508724671105284   1.0
H7   H   0.491081821408557   0.277650010436922   0.557811412936800   1.0
H8   H   0.773106829075033   0.625304284158368   0.668714683904604   1.0
H9   H   0.549613384285166   0.525411838423061   0.826591019062150   1.0
H10   H   0.235488475028411   0.541609500195257   0.506864152763079   1.0
H11   H   0.676667266685264   0.415794376214848   0.381799350713642   1.0
C12   C   0.613829669982884   0.572183654695195   0.671909294946978   1.0
C13   C   0.393129078836992   0.583495964552426   0.447206996383521   1.0
C14   C   0.553462298440195   0.429487301118108   0.503640839282205   1.0
Pb15   Pb   0.023838162166236   0.089847269271480   0.044169202258885   1.0
N16   N   0.482785234822515   0.741240310335613   0.587348976219140   1.0




# HOIP entry ID:                    1329
# Khazana ID:                       3179
# Organic cation source:            B. Zhou et al., Angew. Chem. Int. Ed. 50, 11441 (2011)
# Label:                            Azetidinium Lead Iodide
# Material class:                   Hybrid organic-inorganic perovskite ( MC_ino )
# Geometry class:                   Bulk crystalline materials ( GC_cry )
# Organic cation chemical formula:  C3H6N2
# Number of atom types:             5
# Total number of atoms:            16
# Atom types:                       C H N  Pb I
# Number of each atom:              3 8 1  1 3
# Bandgap, HSE06 (eV):              2.3181
# Bandgap, GGA (eV):                1.5462
# Kpoint for VBM:                   0.5, 0.5, 0.5
# Kpoint for CBM:                   0.5, 0.5, 0.5
# Dielectric constant, electronic:  5.2179
# Dielectric constant, ionic:       43.5439
# Dielectric constant, total:       48.7618
# Refractive index:                 2.2843
# Atomization energy (eV/atom):     -4.344
# Relative energy1 (eV/atom):       0.1854
# Relative energy2 (eV/atom):       0.3259
# Volume of the unit cell (A^3):    281.24
# Density (g/cm^3):                 3.8144
# Tool:                             VASP
# Pseudopotential:                  PAW
# Note:                             ENCUT=400eV, k-spacing_relax=0.20/Angstrom, k-spacing_bandgap=0.15/Angstrom
# Created by:                       C.Kim, T.D.Huan, S.Krishnan, R. Ramprasad