data_1
_audit_creation_method   'Generated by vasp2cif'
_cell_length_a    8.97513332282
_cell_length_b    6.62860888688
_cell_length_c    4.81189601732
_cell_angle_alpha    90.2880724011
_cell_angle_beta    83.8586940275
_cell_angle_gamma    89.8814947585

_symmetry_space_group_name_H-M    'P 1'
loop_
_atom_site_label
_atom_site_type_symbol
_atom_site_fract_x
_atom_site_fract_y
_atom_site_fract_z
_atom_site_occupancy
I1   I   0.760635539227088   0.658810445812954   0.222655006110308   1.0
I2   I   0.025717806505853   0.157939369794619   0.668219778886154   1.0
I3   I   0.285627403107952   0.657219423280431   0.125337469656614   1.0
H4   H   0.587521454004673   0.022197565477669   0.078988344995679   1.0
H5   H   0.331467671090110   0.283078715091612   0.993513131710635   1.0
H6   H   0.333685831607141   0.028101237123217   0.990074041246203   1.0
H7   H   0.396585524883633   0.022121130458927   0.508914048875305   1.0
H8   H   0.393084654895134   0.293207079734792   0.512754118742045   1.0
H9   H   0.664878352548953   0.297117611863420   0.578405958836115   1.0
H10   H   0.668731998178387   0.029163702512399   0.572482988534624   1.0
H11   H   0.584775706126699   0.294130055742514   0.084761868119614   1.0
C12   C   0.437315770408063   0.158279957280897   0.603491701064456   1.0
C13   C   0.559061760712950   0.158514063794911   0.970931960833539   1.0
C14   C   0.605475675583463   0.161332897487945   0.652290684232149   1.0
Pb15   Pb   0.009634832011152   0.658816762995087   0.675576571390501   1.0
N16   N   0.391310019108651   0.156469981548625   0.920652326766017   1.0




# HOIP entry ID:                    1330
# Khazana ID:                       3180
# Organic cation source:            B. Zhou et al., Angew. Chem. Int. Ed. 50, 11441 (2011)
# Label:                            Azetidinium Lead Iodide
# Material class:                   Hybrid organic-inorganic perovskite ( MC_ino )
# Geometry class:                   Bulk crystalline materials ( GC_cry )
# Organic cation chemical formula:  C3H6N2
# Number of atom types:             5
# Total number of atoms:            16
# Atom types:                       C H N  Pb I
# Number of each atom:              3 8 1  1 3
# Bandgap, HSE06 (eV):              2.8499
# Bandgap, GGA (eV):                1.5966
# Kpoint for VBM:                   0, 0, 0
# Kpoint for CBM:                   0.5, 0.5, 0.5
# Dielectric constant, electronic:  4.6244
# Dielectric constant, ionic:       41.4223
# Dielectric constant, total:       46.0467
# Refractive index:                 2.1504
# Atomization energy (eV/atom):     -4.3426
# Relative energy1 (eV/atom):       0.1868
# Relative energy2 (eV/atom):       0.3273
# Volume of the unit cell (A^3):    284.62
# Density (g/cm^3):                 3.7691
# Tool:                             VASP
# Pseudopotential:                  PAW
# Note:                             ENCUT=400eV, k-spacing_relax=0.20/Angstrom, k-spacing_bandgap=0.15/Angstrom
# Created by:                       C.Kim, T.D.Huan, S.Krishnan, R. Ramprasad