data_1
_audit_creation_method   'Generated by vasp2cif'
_cell_length_a    8.90247809584
_cell_length_b    6.6069651656
_cell_length_c    4.81345013224
_cell_angle_alpha    93.1947324424
_cell_angle_beta    83.6352009395
_cell_angle_gamma    86.5287165153

_symmetry_space_group_name_H-M    'P 1'
loop_
_atom_site_label
_atom_site_type_symbol
_atom_site_fract_x
_atom_site_fract_y
_atom_site_fract_z
_atom_site_occupancy
I1   I   0.223263169882557   0.639726172834941   0.771456884435551   1.0
I2   I   0.966842904444263   0.169343838589576   0.262891858250697   1.0
I3   I   0.695382112588831   0.692923976900040   0.880215181146973   1.0
H4   H   0.405679655425416   0.018159720760366   0.944299192401203   1.0
H5   H   0.599074732109329   0.347697064232506   0.040921596168175   1.0
H6   H   0.652384744930231   0.098376893477337   0.040361778701168   1.0
H7   H   0.630780683406527   0.131502841894424   0.527902428052521   1.0
H8   H   0.519041856551354   0.367736368927893   0.525338587331156   1.0
H9   H   0.288578965608963   0.165615344228769   0.532889837608394   1.0
H10   H   0.405366720308940   0.937737933448773   0.438557309919354   1.0
H11   H   0.336724999473468   0.276568178281750   0.045922524440378   1.0
C12   C   0.537785720500054   0.210623473043889   0.440201765397838   1.0
C13   C   0.406820191361476   0.145847026327608   0.096269130962220   1.0
C14   C   0.391349440217361   0.099908835575150   0.408638750397131   1.0
Pb15   Pb   0.971117128059042   0.658531589304538   0.327311336877365   1.0
N16   N   0.570246975132228   0.210500742172485   0.119111837909998   1.0




# HOIP entry ID:                    1331
# Khazana ID:                       3181
# Organic cation source:            B. Zhou et al., Angew. Chem. Int. Ed. 50, 11441 (2011)
# Label:                            Azetidinium Lead Iodide
# Material class:                   Hybrid organic-inorganic perovskite ( MC_ino )
# Geometry class:                   Bulk crystalline materials ( GC_cry )
# Organic cation chemical formula:  C3H6N2
# Number of atom types:             5
# Total number of atoms:            16
# Atom types:                       C H N  Pb I
# Number of each atom:              3 8 1  1 3
# Bandgap, HSE06 (eV):              2.9697
# Bandgap, GGA (eV):                1.7652
# Kpoint for VBM:                   0, 0, 0
# Kpoint for CBM:                   0.5, 0.5, 0.5
# Dielectric constant, electronic:  4.6277
# Dielectric constant, ionic:       14.0484
# Dielectric constant, total:       18.676
# Refractive index:                 2.1512
# Atomization energy (eV/atom):     -4.3437
# Relative energy1 (eV/atom):       0.1857
# Relative energy2 (eV/atom):       0.3262
# Volume of the unit cell (A^3):    280.3
# Density (g/cm^3):                 3.8272
# Tool:                             VASP
# Pseudopotential:                  PAW
# Note:                             ENCUT=400eV, k-spacing_relax=0.20/Angstrom, k-spacing_bandgap=0.15/Angstrom
# Created by:                       C.Kim, T.D.Huan, S.Krishnan, R. Ramprasad