data_1
_audit_creation_method   'Generated by vasp2cif'
_cell_length_a    8.99209957408
_cell_length_b    6.59249574283
_cell_length_c    4.80750508235
_cell_angle_alpha    88.1200957688
_cell_angle_beta    100.705895406
_cell_angle_gamma    86.6874736755

_symmetry_space_group_name_H-M    'P 1'
loop_
_atom_site_label
_atom_site_type_symbol
_atom_site_fract_x
_atom_site_fract_y
_atom_site_fract_z
_atom_site_occupancy
I1   I   0.738616689103151   0.703026031855212   0.142285548890629   1.0
I2   I   0.028197208603957   0.179145516271869   0.698681998250200   1.0
I3   I   0.262903384162319   0.658166738950267   0.319081647453160   1.0
H4   H   0.628922793171792   0.183099727890098   0.174061145387242   1.0
H5   H   0.317193809601682   0.107922891597273   0.894800560407116   1.0
H6   H   0.465553990375532   0.933599317075772   0.988070650777637   1.0
H7   H   0.522411519619530   0.964298644547147   0.535767836073674   1.0
H8   H   0.370223850362508   0.159456086146593   0.448956148785052   1.0
H9   H   0.554227725999529   0.419961985204232   0.607951662199348   1.0
H10   H   0.702025405412101   0.225111833633706   0.710586653644623   1.0
H11   H   0.473367931231533   0.372030855311783   0.070636394968682   1.0
C12   C   0.472490657321318   0.105912620314634   0.598849951845291   1.0
C13   C   0.538782691798924   0.244691220481658   0.004044539094195   1.0
C14   C   0.583345380932561   0.269388295442625   0.710105663250196   1.0
Pb15   Pb   0.000759902023666   0.685324608788428   0.735270124205642   1.0
N16   N   0.431667060279877   0.075843626488725   0.894109474767303   1.0




# HOIP entry ID:                    1332
# Khazana ID:                       3182
# Organic cation source:            B. Zhou et al., Angew. Chem. Int. Ed. 50, 11441 (2011)
# Label:                            Azetidinium Lead Iodide
# Material class:                   Hybrid organic-inorganic perovskite ( MC_ino )
# Geometry class:                   Bulk crystalline materials ( GC_cry )
# Organic cation chemical formula:  C3H6N2
# Number of atom types:             5
# Total number of atoms:            16
# Atom types:                       C H N  Pb I
# Number of each atom:              3 8 1  1 3
# Bandgap, HSE06 (eV):              2.993
# Bandgap, GGA (eV):                1.7917
# Kpoint for VBM:                   0, 0, 0
# Kpoint for CBM:                   0.5, 0.5, 0.5
# Dielectric constant, electronic:  4.6488
# Dielectric constant, ionic:       17.1187
# Dielectric constant, total:       21.7676
# Refractive index:                 2.1561
# Atomization energy (eV/atom):     -4.3445
# Relative energy1 (eV/atom):       0.1849
# Relative energy2 (eV/atom):       0.3254
# Volume of the unit cell (A^3):    279.29
# Density (g/cm^3):                 3.841
# Tool:                             VASP
# Pseudopotential:                  PAW
# Note:                             ENCUT=400eV, k-spacing_relax=0.20/Angstrom, k-spacing_bandgap=0.15/Angstrom
# Created by:                       C.Kim, T.D.Huan, S.Krishnan, R. Ramprasad