data_1
_audit_creation_method   'Generated by vasp2cif'
_cell_length_a    6.44452549896
_cell_length_b    4.64162776319
_cell_length_c    9.33550021336
_cell_angle_alpha    88.1657825308
_cell_angle_beta    93.4095572025
_cell_angle_gamma    96.1184560541

_symmetry_space_group_name_H-M    'P 1'
loop_
_atom_site_label
_atom_site_type_symbol
_atom_site_fract_x
_atom_site_fract_y
_atom_site_fract_z
_atom_site_occupancy
I1   I   0.821787912595281   0.802372968703235   0.789736943583392   1.0
I2   I   0.367557288526108   0.155454298315353   0.073243660179907   1.0
I3   I   0.878217546963454   0.776567641417883   0.309203117448029   1.0
H4   H   0.037830890006589   0.230697383138420   0.547724351570191   1.0
H5   H   0.252884162737537   0.238339390874882   0.351194366560803   1.0
H6   H   0.356553434515667   0.570397113796701   0.387440947354179   1.0
H7   H   0.539149303344661   0.044204802287613   0.472748559042005   1.0
H8   H   0.632428288175815   0.397263759520398   0.533510039004522   1.0
H9   H   0.427501068667859   0.312076525928235   0.749263209035883   1.0
H10   H   0.309749434034768   0.975435498417756   0.685615041344387   1.0
H11   H   0.168244009275783   0.571883328242000   0.601734303319920   1.0
C12   C   0.496834793835631   0.236558027312749   0.523150802297887   1.0
C13   C   0.188899859762727   0.354843966989605   0.568653557107340   1.0
C14   C   0.359586918887172   0.199167160789798   0.654503022339697   1.0
Pb15   Pb   0.858853578786707   0.299230844119519   0.041506881922581   1.0
N16   N   0.318271509884290   0.368987290145757   0.433281197889262   1.0




# HOIP entry ID:                    1333
# Khazana ID:                       3183
# Organic cation source:            B. Zhou et al., Angew. Chem. Int. Ed. 50, 11441 (2011)
# Label:                            Azetidinium Lead Iodide
# Material class:                   Hybrid organic-inorganic perovskite ( MC_ino )
# Geometry class:                   Bulk crystalline materials ( GC_cry )
# Organic cation chemical formula:  C3H6N2
# Number of atom types:             5
# Total number of atoms:            16
# Atom types:                       C H N  Pb I
# Number of each atom:              3 8 1  1 3
# Bandgap, HSE06 (eV):              3.2383
# Bandgap, GGA (eV):                2.3772
# Kpoint for VBM:                   -0.0833, 0, 0.375
# Kpoint for CBM:                   0.5, 0.0556, 0
# Dielectric constant, electronic:  4.5951
# Dielectric constant, ionic:       8.4615
# Dielectric constant, total:       13.0566
# Refractive index:                 2.1436
# Atomization energy (eV/atom):     -4.3361
# Relative energy1 (eV/atom):       0.1933
# Relative energy2 (eV/atom):       0.3339
# Volume of the unit cell (A^3):    277.08
# Density (g/cm^3):                 3.8717
# Tool:                             VASP
# Pseudopotential:                  PAW
# Note:                             ENCUT=400eV, k-spacing_relax=0.20/Angstrom, k-spacing_bandgap=0.15/Angstrom
# Created by:                       C.Kim, T.D.Huan, S.Krishnan, R. Ramprasad