data_1
_audit_creation_method   'Generated by vasp2cif'
_cell_length_a    6.80497372633
_cell_length_b    4.79330908038
_cell_length_c    9.39124234
_cell_angle_alpha    107.523409683
_cell_angle_beta    97.7956943232
_cell_angle_gamma    77.4367697618

_symmetry_space_group_name_H-M    'P 1'
loop_
_atom_site_label
_atom_site_type_symbol
_atom_site_fract_x
_atom_site_fract_y
_atom_site_fract_z
_atom_site_occupancy
I1   I   0.169893666940098   0.971502482331204   0.209129020251794   1.0
I2   I   0.576855070832117   0.164319006963808   0.900439519809744   1.0
I3   I   0.077717734677606   0.696636520201892   0.688595543937218   1.0
H4   H   0.678468567885893   0.996333819440899   0.421774985133069   1.0
H5   H   0.525654383895940   0.356952252588613   0.638397033184347   1.0
H6   H   0.693861864865987   0.572129784894848   0.652927166378085   1.0
H7   H   0.343683851132646   0.508450671949369   0.427985862044871   1.0
H8   H   0.466081522515403   0.820885449560166   0.497273513180374   1.0
H9   H   0.760290712618904   0.527942063813548   0.335429664999467   1.0
H10   H   0.592841829406296   0.285318055268753   0.235470988861636   1.0
H11   H   0.893537965623096   0.171852358048831   0.487964283782958   1.0
C12   C   0.488689843317211   0.579263369732125   0.457546440660209   1.0
C13   C   0.733407530183349   0.204468303463742   0.453186384978309   1.0
C14   C   0.650864612706037   0.400818664424563   0.346304609202171   1.0
Pb15   Pb   0.117020400998449   0.339285899839368   0.953980804451739   1.0
N16   N   0.606590442400829   0.433511297477956   0.577364179143608   1.0




# HOIP entry ID:                    1334
# Khazana ID:                       3184
# Organic cation source:            B. Zhou et al., Angew. Chem. Int. Ed. 50, 11441 (2011)
# Label:                            Azetidinium Lead Iodide
# Material class:                   Hybrid organic-inorganic perovskite ( MC_ino )
# Geometry class:                   Bulk crystalline materials ( GC_cry )
# Organic cation chemical formula:  C3H6N2
# Number of atom types:             5
# Total number of atoms:            16
# Atom types:                       C H N  Pb I
# Number of each atom:              3 8 1  1 3
# Bandgap, HSE06 (eV):              3.3966
# Bandgap, GGA (eV):                2.4933
# Kpoint for VBM:                   0.1667, 0.0556, 0.5
# Kpoint for CBM:                   -0.4167, 0, 0.4
# Dielectric constant, electronic:  4.278
# Dielectric constant, ionic:       5.936
# Dielectric constant, total:       10.214
# Refractive index:                 2.0683
# Atomization energy (eV/atom):     -4.3359
# Relative energy1 (eV/atom):       0.1935
# Relative energy2 (eV/atom):       0.334
# Volume of the unit cell (A^3):    284.31
# Density (g/cm^3):                 3.7732
# Tool:                             VASP
# Pseudopotential:                  PAW
# Note:                             ENCUT=400eV, k-spacing_relax=0.20/Angstrom, k-spacing_bandgap=0.15/Angstrom
# Created by:                       C.Kim, T.D.Huan, S.Krishnan, R. Ramprasad