data_1
_audit_creation_method   'Generated by vasp2cif'
_cell_length_a    9.19242472911
_cell_length_b    4.80176194137
_cell_length_c    6.76679739237
_cell_angle_alpha    101.630519561
_cell_angle_beta    88.4907655984
_cell_angle_gamma    77.2039526958

_symmetry_space_group_name_H-M    'P 1'
loop_
_atom_site_label
_atom_site_type_symbol
_atom_site_fract_x
_atom_site_fract_y
_atom_site_fract_z
_atom_site_occupancy
I1   I   0.208806000071142   0.746972238862107   0.835257379216301   1.0
I2   I   0.900227666463721   0.254907909410072   0.425544699772601   1.0
I3   I   0.689381682099217   0.996723373975307   0.924691251511831   1.0
H4   H   0.420911268600534   0.569634207766043   0.328388942560899   1.0
H5   H   0.637195199628565   0.708400116651994   0.481481117494354   1.0
H6   H   0.652211516618600   0.909667385236453   0.311263279985582   1.0
H7   H   0.424828085998989   0.067601951316988   0.659299989501839   1.0
H8   H   0.495546594432277   0.311558536416733   0.537771502376913   1.0
H9   H   0.338163106259401   0.185461462082948   0.238313913492597   1.0
H10   H   0.235016836079552   0.045106060291595   0.405383397874836   1.0
H11   H   0.489353892011145   0.675520931791681   0.111002785416090   1.0
C12   C   0.455987583276098   0.110965039340918   0.514369486136324   1.0
C13   C   0.453372713430056   0.744038376729343   0.270964506751177   1.0
C14   C   0.346649608165571   0.047490502376007   0.349498941697895   1.0
Pb15   Pb   0.954071874264628   0.372551991964812   0.887487735657757   1.0
N16   N   0.576486372600456   0.846619915786981   0.398871070553021   1.0




# HOIP entry ID:                    1335
# Khazana ID:                       3185
# Organic cation source:            B. Zhou et al., Angew. Chem. Int. Ed. 50, 11441 (2011)
# Label:                            Azetidinium Lead Iodide
# Material class:                   Hybrid organic-inorganic perovskite ( MC_ino )
# Geometry class:                   Bulk crystalline materials ( GC_cry )
# Organic cation chemical formula:  C3H6N2
# Number of atom types:             5
# Total number of atoms:            16
# Atom types:                       C H N  Pb I
# Number of each atom:              3 8 1  1 3
# Bandgap, HSE06 (eV):              3.3751
# Bandgap, GGA (eV):                2.4691
# Kpoint for VBM:                   0.5, 0, 0
# Kpoint for CBM:                   0.5, 0, 0.5
# Dielectric constant, electronic:  4.2906
# Dielectric constant, ionic:       6.1606
# Dielectric constant, total:       10.4513
# Refractive index:                 2.0714
# Atomization energy (eV/atom):     -4.336
# Relative energy1 (eV/atom):       0.1934
# Relative energy2 (eV/atom):       0.3339
# Volume of the unit cell (A^3):    284.5
# Density (g/cm^3):                 3.7707
# Tool:                             VASP
# Pseudopotential:                  PAW
# Note:                             ENCUT=400eV, k-spacing_relax=0.20/Angstrom, k-spacing_bandgap=0.15/Angstrom
# Created by:                       C.Kim, T.D.Huan, S.Krishnan, R. Ramprasad