data_1
_audit_creation_method   'Generated by vasp2cif'
_cell_length_a    9.05791935589
_cell_length_b    4.80856143544
_cell_length_c    6.6327605361
_cell_angle_alpha    90.0231656577
_cell_angle_beta    85.6000785247
_cell_angle_gamma    104.409194236

_symmetry_space_group_name_H-M    'P 1'
loop_
_atom_site_label
_atom_site_type_symbol
_atom_site_fract_x
_atom_site_fract_y
_atom_site_fract_z
_atom_site_occupancy
I1   I   0.758211988676969   0.727693996643281   0.140631750907082   1.0
I2   I   0.070092788642046   0.356068128471066   0.611524100079101   1.0
I3   I   0.285102343724810   0.974260933206879   0.084952048569273   1.0
H4   H   0.660854966282338   0.688026054896957   0.618327618625664   1.0
H5   H   0.493671495509594   0.752276816259755   0.377526559020698   1.0
H6   H   0.345509196949042   0.695939169530504   0.555830739675848   1.0
H7   H   0.532821138036274   0.244422874816265   0.403837608747741   1.0
H8   H   0.391218327817938   0.188123990932802   0.615927182403655   1.0
H9   H   0.600396595276704   0.199911171249648   0.844748665139436   1.0
H10   H   0.734041530499155   0.214527624934242   0.631110733466425   1.0
H11   H   0.509569341045827   0.671992586931279   0.814884845547095   1.0
C12   C   0.493668083493137   0.133384995147107   0.548512578741929   1.0
C13   C   0.572246304604649   0.787092314255948   0.681053347104111   1.0
C14   C   0.617786093993290   0.118091963849221   0.694038494841584   1.0
Pb15   Pb   0.025292154077896   0.350742971084352   0.118749427666364   1.0
N16   N   0.458777651370291   0.806144407790762   0.520764299464036   1.0




# HOIP entry ID:                    1336
# Khazana ID:                       3186
# Organic cation source:            B. Zhou et al., Angew. Chem. Int. Ed. 50, 11441 (2011)
# Label:                            Azetidinium Lead Iodide
# Material class:                   Hybrid organic-inorganic perovskite ( MC_ino )
# Geometry class:                   Bulk crystalline materials ( GC_cry )
# Organic cation chemical formula:  C3H6N2
# Number of atom types:             5
# Total number of atoms:            16
# Atom types:                       C H N  Pb I
# Number of each atom:              3 8 1  1 3
# Bandgap, HSE06 (eV):              3.0572
# Bandgap, GGA (eV):                2.1556
# Kpoint for VBM:                   -0.125, 0, 0.0833
# Kpoint for CBM:                   0.5, 0.5, 0.5
# Dielectric constant, electronic:  4.639
# Dielectric constant, ionic:       16.9374
# Dielectric constant, total:       21.5764
# Refractive index:                 2.1538
# Atomization energy (eV/atom):     -4.3453
# Relative energy1 (eV/atom):       0.1841
# Relative energy2 (eV/atom):       0.3247
# Volume of the unit cell (A^3):    278.93
# Density (g/cm^3):                 3.846
# Tool:                             VASP
# Pseudopotential:                  PAW
# Note:                             ENCUT=400eV, k-spacing_relax=0.20/Angstrom, k-spacing_bandgap=0.15/Angstrom
# Created by:                       C.Kim, T.D.Huan, S.Krishnan, R. Ramprasad