data_1
_audit_creation_method   'Generated by vasp2cif'
_cell_length_a    6.44803584892
_cell_length_b    4.6149987466
_cell_length_c    9.35016001137
_cell_angle_alpha    88.8531034684
_cell_angle_beta    89.66460821
_cell_angle_gamma    85.0051796708

_symmetry_space_group_name_H-M    'P 1'
loop_
_atom_site_label
_atom_site_type_symbol
_atom_site_fract_x
_atom_site_fract_y
_atom_site_fract_z
_atom_site_occupancy
I1   I   0.926569061834762   0.809610104879553   0.772985222092039   1.0
I2   I   0.405444367954246   0.148321444693749   0.055598242021880   1.0
I3   I   0.908062763695526   0.790202310217481   0.291987564212626   1.0
H4   H   0.266557748633410   0.991667169731464   0.500232709134544   1.0
H5   H   0.443904037326327   0.266693511750383   0.327427187707599   1.0
H6   H   0.312175637413503   0.570488749469661   0.378688889968899   1.0
H7   H   0.699511430380916   0.287262872398756   0.509775526546740   1.0
H8   H   0.589465713190833   0.647337366997668   0.543948059095939   1.0
H9   H   0.343887687808078   0.452956202999566   0.722674787460974   1.0
H10   H   0.484836942258937   0.106443549358247   0.709579794515733   1.0
H11   H   0.104601777374370   0.316473523361196   0.532422158266812   1.0
C12   C   0.556955731142402   0.421389404509732   0.534796728480210   1.0
C13   C   0.264452474547888   0.219446748931269   0.528175415457504   1.0
C14   C   0.413875705281683   0.292465322344704   0.648764252051002   1.0
Pb15   Pb   0.910316549708376   0.306238405162588   0.026316729861456   1.0
N16   N   0.393492371448708   0.382433313193992   0.417116733125894   1.0




# HOIP entry ID:                    1337
# Khazana ID:                       3187
# Organic cation source:            B. Zhou et al., Angew. Chem. Int. Ed. 50, 11441 (2011)
# Label:                            Azetidinium Lead Iodide
# Material class:                   Hybrid organic-inorganic perovskite ( MC_ino )
# Geometry class:                   Bulk crystalline materials ( GC_cry )
# Organic cation chemical formula:  C3H6N2
# Number of atom types:             5
# Total number of atoms:            16
# Atom types:                       C H N  Pb I
# Number of each atom:              3 8 1  1 3
# Bandgap, HSE06 (eV):              3.2095
# Bandgap, GGA (eV):                2.3578
# Kpoint for VBM:                   0.0833, 0, 0.375
# Kpoint for CBM:                   0.5, 0.0556, 0
# Dielectric constant, electronic:  4.5748
# Dielectric constant, ionic:       7.9825
# Dielectric constant, total:       12.5573
# Refractive index:                 2.1389
# Atomization energy (eV/atom):     -4.3364
# Relative energy1 (eV/atom):       0.193
# Relative energy2 (eV/atom):       0.3335
# Volume of the unit cell (A^3):    277.12
# Density (g/cm^3):                 3.8711
# Tool:                             VASP
# Pseudopotential:                  PAW
# Note:                             ENCUT=400eV, k-spacing_relax=0.20/Angstrom, k-spacing_bandgap=0.15/Angstrom
# Created by:                       C.Kim, T.D.Huan, S.Krishnan, R. Ramprasad