data_1
_audit_creation_method   'Generated by vasp2cif'
_cell_length_a    8.58322659167
_cell_length_b    6.90940950991
_cell_length_c    4.80307594704
_cell_angle_alpha    90.8264026904
_cell_angle_beta    89.9643924151
_cell_angle_gamma    84.0099089423

_symmetry_space_group_name_H-M    'P 1'
loop_
_atom_site_label
_atom_site_type_symbol
_atom_site_fract_x
_atom_site_fract_y
_atom_site_fract_z
_atom_site_occupancy
I1   I   0.177155095577815   0.527039496617041   0.818115071904528   1.0
I2   I   0.871144963389314   0.077424016752859   0.828025954069931   1.0
I3   I   0.635285720457697   0.578512228487561   0.356495020077284   1.0
H4   H   0.426213635927262   0.867559330519365   0.906879670187681   1.0
H5   H   0.424640017878336   0.294474144997241   0.990214108604986   1.0
H6   H   0.584444140787983   0.129336888233110   0.983422768974788   1.0
H7   H   0.544946756556548   0.042981975757483   0.448760077206015   1.0
H8   H   0.410865919622660   0.261969959675893   0.471281499493800   1.0
H9   H   0.190365041906587   0.078761430235440   0.323862550204366   1.0
H10   H   0.314160008490204   0.856438198451183   0.382629398011194   1.0
H11   H   0.268433639423177   0.054065580746413   0.830800451517136   1.0
C12   C   0.440825683836330   0.124081942830749   0.362072836725834   1.0
C13   C   0.357461161061359   0.000208082585575   0.979519210739625   1.0
C14   C   0.305912253485432   0.999540180417239   0.287977292951360   1.0
Pb15   Pb   0.947789527963115   0.746173557813311   0.320866796462558   1.0
N16   N   0.469046433636208   0.156512985879584   0.050757292869061   1.0




# HOIP entry ID:                    1339
# Khazana ID:                       3189
# Organic cation source:            B. Zhou et al., Angew. Chem. Int. Ed. 50, 11441 (2011)
# Label:                            Azetidinium Lead Iodide
# Material class:                   Hybrid organic-inorganic perovskite ( MC_ino )
# Geometry class:                   Bulk crystalline materials ( GC_cry )
# Organic cation chemical formula:  C3H6N2
# Number of atom types:             5
# Total number of atoms:            16
# Atom types:                       C H N  Pb I
# Number of each atom:              3 8 1  1 3
# Bandgap, HSE06 (eV):              3.344
# Bandgap, GGA (eV):                2.4482
# Kpoint for VBM:                   0, 0, 0
# Kpoint for CBM:                   0, 0.5, 0
# Dielectric constant, electronic:  4.138
# Dielectric constant, ionic:       4.058
# Dielectric constant, total:       8.196
# Refractive index:                 2.0342
# Atomization energy (eV/atom):     -4.3318
# Relative energy1 (eV/atom):       0.1976
# Relative energy2 (eV/atom):       0.3382
# Volume of the unit cell (A^3):    283.26
# Density (g/cm^3):                 3.7872
# Tool:                             VASP
# Pseudopotential:                  PAW
# Note:                             ENCUT=400eV, k-spacing_relax=0.20/Angstrom, k-spacing_bandgap=0.15/Angstrom
# Created by:                       C.Kim, T.D.Huan, S.Krishnan, R. Ramprasad