data_1
_audit_creation_method   'Generated by vasp2cif'
_cell_length_a    8.70628852147
_cell_length_b    6.81574283748
_cell_length_c    4.83250833348
_cell_angle_alpha    88.3914088523
_cell_angle_beta    93.1958683336
_cell_angle_gamma    80.7365719946

_symmetry_space_group_name_H-M    'P 1'
loop_
_atom_site_label
_atom_site_type_symbol
_atom_site_fract_x
_atom_site_fract_y
_atom_site_fract_z
_atom_site_occupancy
I1   I   0.923197021210079   0.182468921083640   0.788385404485702   1.0
I2   I   0.156490920438479   0.689764015288247   0.329926152186630   1.0
I3   I   0.610362056670347   0.754220114834077   0.730811873166516   1.0
H4   H   0.320599617482657   0.107099129879074   0.715284609907464   1.0
H5   H   0.509875144848962   0.415724054762080   0.818018716338429   1.0
H6   H   0.580657609314144   0.169968564963128   0.807983241642958   1.0
H7   H   0.603215876039009   0.150797203290899   0.290529805123469   1.0
H8   H   0.482486634325653   0.393420163583883   0.295817054937380   1.0
H9   H   0.249879790031777   0.221751940706298   0.293054301277635   1.0
H10   H   0.365976877229585   0.993605694954503   0.206294855065664   1.0
H11   H   0.248341592493091   0.357458650094472   0.811554345861254   1.0
C12   C   0.497343549062407   0.246632391785823   0.206381505040049   1.0
C13   C   0.329976214040727   0.221425842303986   0.864279700549005   1.0
C14   C   0.345522373082531   0.154756030813644   0.173564158663133   1.0
Pb15   Pb   0.857248893575537   0.519535991464906   0.274669973880393   1.0
N16   N   0.497245830155009   0.274361290191251   0.888794301874448   1.0




# HOIP entry ID:                    1340
# Khazana ID:                       3190
# Organic cation source:            B. Zhou et al., Angew. Chem. Int. Ed. 50, 11441 (2011)
# Label:                            Azetidinium Lead Iodide
# Material class:                   Hybrid organic-inorganic perovskite ( MC_ino )
# Geometry class:                   Bulk crystalline materials ( GC_cry )
# Organic cation chemical formula:  C3H6N2
# Number of atom types:             5
# Total number of atoms:            16
# Atom types:                       C H N  Pb I
# Number of each atom:              3 8 1  1 3
# Bandgap, HSE06 (eV):              3.2456
# Bandgap, GGA (eV):                2.3324
# Kpoint for VBM:                   0.1842, 0.1842, 0.1842
# Kpoint for CBM:                   0, 0.4737, 0
# Dielectric constant, electronic:  4.1579
# Dielectric constant, ionic:       4.4008
# Dielectric constant, total:       8.5587
# Refractive index:                 2.0391
# Atomization energy (eV/atom):     -4.326
# Relative energy1 (eV/atom):       0.2034
# Relative energy2 (eV/atom):       0.3439
# Volume of the unit cell (A^3):    282.38
# Density (g/cm^3):                 3.799
# Tool:                             VASP
# Pseudopotential:                  PAW
# Note:                             ENCUT=400eV, k-spacing_relax=0.20/Angstrom, k-spacing_bandgap=0.15/Angstrom
# Created by:                       C.Kim, T.D.Huan, S.Krishnan, R. Ramprasad