data_1
_audit_creation_method   'Generated by vasp2cif'
_cell_length_a    6.52208377892
_cell_length_b    6.87594660782
_cell_length_c    6.53085019631
_cell_angle_alpha    89.3790292959
_cell_angle_beta    82.1541958142
_cell_angle_gamma    90.2088521441

_symmetry_space_group_name_H-M    'P 1'
loop_
_atom_site_label
_atom_site_type_symbol
_atom_site_fract_x
_atom_site_fract_y
_atom_site_fract_z
_atom_site_occupancy
I1   I   0.372161869081907   0.731007955452561   0.080518638456688   1.0
I2   I   0.854482098721704   0.731800912304564   0.582384720058457   1.0
I3   I   0.872379363393598   0.221915062195002   0.083568359057701   1.0
H4   H   0.547711857435658   0.040376044556083   0.773421057920039   1.0
H5   H   0.317493764793973   0.899839995902020   0.524883990604806   1.0
H6   H   0.269101829847337   0.513928623612692   0.500560915842073   1.0
H7   H   0.539782227969596   0.411365968744704   0.779569783106460   1.0
H8   H   0.151571040689746   0.192439310146725   0.364457489983735   1.0
C9   C   0.453626940452899   0.324648406004577   0.685164934183504   1.0
C10   C   0.340632102899612   0.050789502635531   0.556122874977447   1.0
C11   C   0.321177071815527   0.374952820574784   0.548725449768504   1.0
Pb12   Pb   0.880783934562345   0.755356411482502   0.091181709622916   1.0
N13   N   0.462788643509548   0.123255432780745   0.686504140260475   1.0
N14   N   0.253167254826565   0.202583553607511   0.470585936157235   1.0




# HOIP entry ID:                    1341
# Khazana ID:                       3191
# Organic cation source:            B.Saparov et al., Chem. Rev. 116, 4558 (2016)
# Label:                            Imidazolium Lead Iodide
# Material class:                   Hybrid organic-inorganic perovskite ( MC_ino )
# Geometry class:                   Bulk crystalline materials ( GC_cry )
# Organic cation chemical formula:  C3H5N2
# Number of atom types:             5
# Total number of atoms:            14
# Atom types:                       C H N  Pb I
# Number of each atom:              3 5 2  1 3
# Bandgap, HSE06 (eV):              2.3723
# Bandgap, GGA (eV):                1.6653
# Kpoint for VBM:                   0.5, 0.5, 0.5
# Kpoint for CBM:                   0.5, 0.5, 0.4737
# Dielectric constant, electronic:  5.0625
# Dielectric constant, ionic:       17.1797
# Dielectric constant, total:       22.2423
# Refractive index:                 2.25
# Atomization energy (eV/atom):     -4.7774
# Relative energy1 (eV/atom):       0.4175
# Relative energy2 (eV/atom):       0.5781
# Volume of the unit cell (A^3):    290.12
# Density (g/cm^3):                 3.7605
# Tool:                             VASP
# Pseudopotential:                  PAW
# Note:                             ENCUT=400eV, k-spacing_relax=0.20/Angstrom, k-spacing_bandgap=0.15/Angstrom
# Created by:                       C.Kim, T.D.Huan, S.Krishnan, R. Ramprasad