data_1
_audit_creation_method   'Generated by vasp2cif'
_cell_length_a    6.53439874411
_cell_length_b    6.70080199898
_cell_length_c    6.63220124588
_cell_angle_alpha    95.2337142556
_cell_angle_beta    82.9420258226
_cell_angle_gamma    85.4382951315

_symmetry_space_group_name_H-M    'P 1'
loop_
_atom_site_label
_atom_site_type_symbol
_atom_site_fract_x
_atom_site_fract_y
_atom_site_fract_z
_atom_site_occupancy
I1   I   0.640211161140280   0.745881062566049   0.921022287902622   1.0
I2   I   0.139978020592464   0.771942385038207   0.400804345384224   1.0
I3   I   0.136564721483634   0.270551270628017   0.892317354810723   1.0
H4   H   0.428920480912434   0.036294930079363   0.344464926288589   1.0
H5   H   0.666344600350378   0.017649730704202   0.621357532267303   1.0
H6   H   0.762874747547876   0.553496392943265   0.340673422564137   1.0
H7   H   0.468706769138480   0.350582996687210   0.153909513002816   1.0
H8   H   0.864686639533606   0.329954924365508   0.614476941668843   1.0
C9   C   0.554058461112516   0.315079210476805   0.276657193137343   1.0
C10   C   0.653895081344007   0.133750627849161   0.520001079078655   1.0
C11   C   0.698201661314797   0.414403655256403   0.368153679872859   1.0
Pb12   Pb   0.139280521831772   0.793728794685414   0.889004701243361   1.0
N13   N   0.529430397309283   0.141591307102989   0.373741640346902   1.0
N14   N   0.758026736388577   0.298562711617478   0.518155382431732   1.0




# HOIP entry ID:                    1342
# Khazana ID:                       3192
# Organic cation source:            B.Saparov et al., Chem. Rev. 116, 4558 (2016)
# Label:                            Imidazolium Lead Iodide
# Material class:                   Hybrid organic-inorganic perovskite ( MC_ino )
# Geometry class:                   Bulk crystalline materials ( GC_cry )
# Organic cation chemical formula:  C3H5N2
# Number of atom types:             5
# Total number of atoms:            14
# Atom types:                       C H N  Pb I
# Number of each atom:              3 5 2  1 3
# Bandgap, HSE06 (eV):              2.348
# Bandgap, GGA (eV):                1.5309
# Kpoint for VBM:                   0.5, 0.5, 0
# Kpoint for CBM:                   0.5, 0.5, 0.5
# Dielectric constant, electronic:  5.2009
# Dielectric constant, ionic:       38.1234
# Dielectric constant, total:       43.3243
# Refractive index:                 2.2806
# Atomization energy (eV/atom):     -4.7813
# Relative energy1 (eV/atom):       0.4136
# Relative energy2 (eV/atom):       0.5742
# Volume of the unit cell (A^3):    285.78
# Density (g/cm^3):                 3.8176
# Tool:                             VASP
# Pseudopotential:                  PAW
# Note:                             ENCUT=400eV, k-spacing_relax=0.20/Angstrom, k-spacing_bandgap=0.15/Angstrom
# Created by:                       C.Kim, T.D.Huan, S.Krishnan, R. Ramprasad