data_1
_audit_creation_method   'Generated by vasp2cif'
_cell_length_a    6.68916243421
_cell_length_b    6.60486856507
_cell_length_c    6.57635170598
_cell_angle_alpha    83.2066023716
_cell_angle_beta    85.1502392824
_cell_angle_gamma    95.4976207321

_symmetry_space_group_name_H-M    'P 1'
loop_
_atom_site_label
_atom_site_type_symbol
_atom_site_fract_x
_atom_site_fract_y
_atom_site_fract_z
_atom_site_occupancy
I1   I   0.391277554857318   0.782288141353753   0.104897587333681   1.0
I2   I   0.900997998469109   0.743642537626009   0.601248827817891   1.0
I3   I   0.868480184302683   0.274618865886744   0.116167682611838   1.0
H4   H   0.604513458163929   0.323702838778608   0.831773644113170   1.0
H5   H   0.636620984266251   0.047396476051496   0.594245941280121   1.0
H6   H   0.103670411514145   0.324902309744012   0.477089065477429   1.0
H7   H   0.291503252332660   0.512882907059094   0.779420974642711   1.0
H8   H   0.334815601059539   0.053162203075445   0.383122494070776   1.0
C9   C   0.331430170547669   0.390099532291046   0.695618124310450   1.0
C10   C   0.519221463098624   0.148011922907116   0.602751743365189   1.0
C11   C   0.239773350463771   0.298223208716308   0.547304569306469   1.0
Pb12   Pb   0.907947641543117   0.772146095377167   0.106407727065005   1.0
N13   N   0.504230436342773   0.294001957203193   0.727097226164560   1.0
N14   N   0.359517493038432   0.148781003929997   0.492094392440606   1.0




# HOIP entry ID:                    1343
# Khazana ID:                       3193
# Organic cation source:            B.Saparov et al., Chem. Rev. 116, 4558 (2016)
# Label:                            Imidazolium Lead Iodide
# Material class:                   Hybrid organic-inorganic perovskite ( MC_ino )
# Geometry class:                   Bulk crystalline materials ( GC_cry )
# Organic cation chemical formula:  C3H5N2
# Number of atom types:             5
# Total number of atoms:            14
# Atom types:                       C H N  Pb I
# Number of each atom:              3 5 2  1 3
# Bandgap, HSE06 (eV):              2.3885
# Bandgap, GGA (eV):                1.5521
# Kpoint for VBM:                   0.5, 0.5, 0
# Kpoint for CBM:                   0.5, 0.5, 0.5
# Dielectric constant, electronic:  5.2533
# Dielectric constant, ionic:       67.4351
# Dielectric constant, total:       72.6884
# Refractive index:                 2.292
# Atomization energy (eV/atom):     -4.7814
# Relative energy1 (eV/atom):       0.4135
# Relative energy2 (eV/atom):       0.5741
# Volume of the unit cell (A^3):    285.83
# Density (g/cm^3):                 3.817
# Tool:                             VASP
# Pseudopotential:                  PAW
# Note:                             ENCUT=400eV, k-spacing_relax=0.20/Angstrom, k-spacing_bandgap=0.15/Angstrom
# Created by:                       C.Kim, T.D.Huan, S.Krishnan, R. Ramprasad