data_1
_audit_creation_method   'Generated by vasp2cif'
_cell_length_a    6.57511695862
_cell_length_b    6.56547225243
_cell_length_c    6.72686035599
_cell_angle_alpha    95.6340691636
_cell_angle_beta    95.3990760494
_cell_angle_gamma    96.2265066343

_symmetry_space_group_name_H-M    'P 1'
loop_
_atom_site_label
_atom_site_type_symbol
_atom_site_fract_x
_atom_site_fract_y
_atom_site_fract_z
_atom_site_occupancy
I1   I   0.947829173192822   0.868130787563004   0.447395105055065   1.0
I2   I   0.452969160173403   0.838308429664778   0.948724666765251   1.0
I3   I   0.935877571125232   0.373125352749106   0.910848551151339   1.0
H4   H   0.205993071818483   0.443160340615457   0.632726685921874   1.0
H5   H   0.426199008447760   0.155471640778039   0.698690200013154   1.0
H6   H   0.592999898055872   0.393910355763005   0.164346395138416   1.0
H7   H   0.289194820535812   0.610696253840459   0.315791240279893   1.0
H8   H   0.656893042737202   0.130661767031519   0.415037516773154   1.0
C9   C   0.362849736824131   0.485134301723086   0.368741038361399   1.0
C10   C   0.429559718123485   0.248716614386844   0.575487595678382   1.0
C11   C   0.512001857791105   0.379079614634755   0.294868273837714   1.0
Pb12   Pb   0.942109055677399   0.872466393542126   0.970767930005238   1.0
N13   N   0.314341568034216   0.401013594981357   0.542427190218703   1.0
N14   N   0.550602317463060   0.233184552726385   0.425997610800259   1.0




# HOIP entry ID:                    1344
# Khazana ID:                       3194
# Organic cation source:            B.Saparov et al., Chem. Rev. 116, 4558 (2016)
# Label:                            Imidazolium Lead Iodide
# Material class:                   Hybrid organic-inorganic perovskite ( MC_ino )
# Geometry class:                   Bulk crystalline materials ( GC_cry )
# Organic cation chemical formula:  C3H5N2
# Number of atom types:             5
# Total number of atoms:            14
# Atom types:                       C H N  Pb I
# Number of each atom:              3 5 2  1 3
# Bandgap, HSE06 (eV):              2.5079
# Bandgap, GGA (eV):                1.6908
# Kpoint for VBM:                   0.4474, 0.5, 0
# Kpoint for CBM:                   0.4737, 0.4737, 0.4737
# Dielectric constant, electronic:  5.1675
# Dielectric constant, ionic:       23.3872
# Dielectric constant, total:       28.5547
# Refractive index:                 2.2732
# Atomization energy (eV/atom):     -4.7815
# Relative energy1 (eV/atom):       0.4134
# Relative energy2 (eV/atom):       0.574
# Volume of the unit cell (A^3):    285.67
# Density (g/cm^3):                 3.8191
# Tool:                             VASP
# Pseudopotential:                  PAW
# Note:                             ENCUT=400eV, k-spacing_relax=0.20/Angstrom, k-spacing_bandgap=0.15/Angstrom
# Created by:                       C.Kim, T.D.Huan, S.Krishnan, R. Ramprasad