data_1
_audit_creation_method   'Generated by vasp2cif'
_cell_length_a    6.65455464619
_cell_length_b    4.59210456325
_cell_length_c    9.99477622505
_cell_angle_alpha    113.141791813
_cell_angle_beta    97.5970888622
_cell_angle_gamma    80.0381700748

_symmetry_space_group_name_H-M    'P 1'
loop_
_atom_site_label
_atom_site_type_symbol
_atom_site_fract_x
_atom_site_fract_y
_atom_site_fract_z
_atom_site_occupancy
I1   I   0.983592403093866   0.158121744682354   0.725474486057237   1.0
I2   I   0.469738825838888   0.735186915113658   0.006233241106514   1.0
I3   I   0.005124987301912   0.599510492144915   0.251443427895005   1.0
H4   H   0.569376200277652   0.170961230969013   0.279450112045126   1.0
H5   H   0.282675705963022   0.417819893558246   0.652929010921738   1.0
H6   H   0.530282450366705   0.831849193295355   0.717957082289217   1.0
H7   H   0.732786833482784   0.658308368116600   0.464902062867083   1.0
H8   H   0.301496058037884   0.018519510294020   0.389800241498442   1.0
C9   C   0.515058997481880   0.642713020579016   0.612537079620182   1.0
C10   C   0.613512919245856   0.558306624182173   0.488467548387454   1.0
C11   C   0.391791030552710   0.211835692801522   0.444401228146695   1.0
Pb12   Pb   0.988511622047724   0.883683748430641   0.989881164055738   1.0
N13   N   0.379243255250408   0.422874545596677   0.582541407479106   1.0
N14   N   0.534738711058736   0.289589020235830   0.385941907630475   1.0




# HOIP entry ID:                    1346
# Khazana ID:                       3196
# Organic cation source:            B.Saparov et al., Chem. Rev. 116, 4558 (2016)
# Label:                            Imidazolium Lead Iodide
# Material class:                   Hybrid organic-inorganic perovskite ( MC_ino )
# Geometry class:                   Bulk crystalline materials ( GC_cry )
# Organic cation chemical formula:  C3H5N2
# Number of atom types:             5
# Total number of atoms:            14
# Atom types:                       C H N  Pb I
# Number of each atom:              3 5 2  1 3
# Bandgap, HSE06 (eV):              3.1504
# Bandgap, GGA (eV):                2.302
# Kpoint for VBM:                   0.0833, 0, 0.4
# Kpoint for CBM:                   0.5, -0.0556, 0.1
# Dielectric constant, electronic:  4.5367
# Dielectric constant, ionic:       6.409
# Dielectric constant, total:       10.9458
# Refractive index:                 2.13
# Atomization energy (eV/atom):     -4.7856
# Relative energy1 (eV/atom):       0.4093
# Relative energy2 (eV/atom):       0.5699
# Volume of the unit cell (A^3):    275.92
# Density (g/cm^3):                 3.954
# Tool:                             VASP
# Pseudopotential:                  PAW
# Note:                             ENCUT=400eV, k-spacing_relax=0.20/Angstrom, k-spacing_bandgap=0.15/Angstrom
# Created by:                       C.Kim, T.D.Huan, S.Krishnan, R. Ramprasad